/*---------------------------------------------------------------------------*\
| =========                 |                                                 |
| \\      /  F ield         | OpenFOAM: The Open Source CFD Toolbox           |
|  \\    /   O peration     | Version:  dev                                   |
|   \\  /    A nd           | Web:      www.OpenFOAM.org                      |
|    \\/     M anipulation  |                                                 |
\*---------------------------------------------------------------------------*/
Build  : dev-fa8929df6dcf
Exec   : pbeTransportFoam -parallel
Date   : Jun 01 2016
Time   : 15:05:44
Host   : "apgroup-5400-1"
PID    : 11942
Case   : /home/luc/OpenFOAM/OpenQBMM-dev/tutorials/pbeTransportFoam/combustion
nProcs : 4
Slaves : 
3
(
"apgroup-5400-1.11943"
"apgroup-5400-1.11944"
"apgroup-5400-1.11945"
)

Pstream initialized with:
    floatTransfer      : 0
    nProcsSimpleSum    : 0
    commsType          : nonBlocking
    polling iterations : 0
sigFpe : Enabling floating point exception trapping (FOAM_SIGFPE).
fileModificationChecking : Monitoring run-time modified files using timeStampMaster
allowSystemOperations : Allowing user-supplied system call operations

// * * * * * * * * * * * * * * * * * * * * * * * * * * * * * * * * * * * * * //
Create time

Create mesh for time = 0.001


PIMPLE: Operating solver in PISO mode


Reading g
Reading thermophysical properties

Selecting thermodynamics package 
{
    type            heRhoThermo;
    mixture         reactingMixture;
    transport       sutherland;
    thermo          janaf;
    energy          sensibleEnthalpy;
    equationOfState perfectGas;
    specie          specie;
}

Selecting chemistryReader foamChemistryReader
Reading field U

Reading/calculating face flux field phi

Creating turbulence model

Selecting turbulence model type laminar
Calculating field g.h

Reading field p_rgh

Reading populationBalanceProperties

Selecting populationBalanceModel univariatePopulationBalance
Selecting extendedMomentInversion: lognormal
Selecting aggregationKernel Fuchs
Selecting breakupKernel constant
Selecting daughterDistribution symmetricFragmentation
Selecting convectionModel growthReduction
Selecting diffusionModel none
Selecting nucleationModel Miller
Radiation model not active: radiationProperties not found
Selecting radiationModel none
Courant Number mean: 0.0912111 max: 0.496767

Starting time loop

--> FOAM Warning : 
    From function virtual void Foam::probes::findElements(const Foam::fvMesh&)
    in file probes/probes.C at line 130
    Location (0 0 0.004) seems to be on multiple domains: cell 0 on my domain 0 and cell 239 on some other domain.
This might happen if the probe location is on a processor patch. Change the location slightly to prevent this.
--> FOAM Warning : 
    From function virtual void Foam::probes::findElements(const Foam::fvMesh&)
    in file probes/probes.C at line 144
    Location (0 0 0.004) seems to be on multiple domains: cell 1 on my domain 0 and face 454 on some other domain.
This might happen if the probe location is on a processor patch. Change the location slightly to prevent this.
Courant Number mean: 0.0912111 max: 0.496767
deltaT = 2.38095e-05
Time = 0.00102380952381

PIMPLE: iteration 1
aggregationSource : dimensions      [0 -3 -1 0 0 0 0];

internalField   nonuniform List<scalar> 
250
(
0
0
0
0
0
0
0
0
0
0
0
0
0
0
0
0
0
0
0
-2336.41
0
0
0
0
0
0
0
0
0
0
0
0
0
0
0
0
0
0
0
-659953
0
0
0
0
0
0
0
0
0
0
0
0
0
0
0
0
0
0
0
-32441.8
0
0
0
0
0
0
0
0
0
0
0
0
0
0
0
0
0
0
0
-1.89421e+08
0
0
0
0
0
0
0
0
0
0
0
0
0
0
0
0
0
0
0
-1.69784e+10
0
0
0
0
0
0
0
0
0
0
0
0
0
0
0
0
0
0
0
-1.29777e+16
0
0
0
0
0
0
0
0
0
0
0
0
0
0
0
0
0
0
0
-1.02301e+15
0
0
0
0
0
0
0
0
0
0
0
0
0
0
0
0
0
0
0
-4.37576e-11
0
0
0
0
0
0
0
0
0
0
0
0
0
0
0
0
0
0
0
0
-0.724135
0
0
0
0
0
0
0
0
0
0
0
0
0
0
0
0
0
-0.281553
-77942.1
-0.148189
-0.218128
-0.0727435
0
-0.0376783
-4243.48
0
0
-0.439951
-8.98827e+07
-97.2471
0
0
-0.0002777
-0.0382921
-0.0372742
-0.0441719
-0.0789629
-0.0051915
-159908
-119.489
-47.5393
-25.9962
0
-1515.1
-20877.9
-2.29937e+06
-155770
-3.09339e+06
-1.98741e+08
-1.18682e+07
-57700.8
-266.241
-28.5777
-25.2919
-16.5771
-30.0256
-15.6396
-71.7274
-39041.5
-2.82579e+07
-9006.5
-149.863
-35.9551
-35.2208
-28.0511
-42.3383
-34.8035
-141.252
-11049.6
)
;

boundaryField
{
    fuel
    {
        type            calculated;
        value           nonuniform 0();
    }
    wall
    {
        type            calculated;
        value           nonuniform 0();
    }
    outlet
    {
        type            calculated;
        value           nonuniform List<scalar> 
25
(
0
0
0
0
0
0
0
0
-0.724141
-0.14819
-119.49
0
-2336.35
-659944
-32441.9
-1.89421e+08
-1.69784e+10
-1.29777e+16
-1.02301e+15
-4.37573e-11
0
-77941.3
-159906
-39040.8
-11049.3
)
;
    }
    frontAndBack
    {
        type            empty;
    }
    procBoundary0to1
    {
        type            processor;
        value           nonuniform List<scalar> 
21
(
-236.232
-102.086
-45.8092
-32.6641
-775.539
-29304
-4.51599e+06
-22219
-8.91961e+06
-3.83743e+08
-3.83743e+08
-3.38536e+06
-1816.51
-100.407
-48.1733
-50.2715
-43.3172
-59.3164
-55.6715
-169.613
-3940.01
)
;
    }
    procBoundary0to2
    {
        type            processor;
        value           uniform 0;
    }
    procBoundary0to3
    {
        type            processor;
        value           nonuniform List<scalar> 10(0 0 0 0 0 0 0 0 0 -0.000249543);
    }
}

diagonal:  Solving for moment.0.populationBalance, Initial residual = 0, Final residual = 0, No Iterations 0
aggregationSource : dimensions      [0 0 -1 0 0 0 0];

internalField   nonuniform List<scalar> 
250
(
0
0
0
0
0
0
0
0
0
0
0
0
0
0
0
0
0
0
0
0
0
0
0
0
0
0
0
0
0
0
0
0
0
0
0
0
0
0
0
0
0
0
0
0
0
0
0
0
0
0
0
0
0
0
0
0
0
0
0
2.86547e-19
0
0
0
0
0
0
0
0
0
0
0
0
0
0
0
0
0
0
0
3.16281e-15
0
0
0
0
0
0
0
0
0
0
0
0
0
0
0
0
0
0
0
0
0
0
0
0
0
0
0
0
0
0
0
0
0
0
0
0
0
0
0
0
0
0
0
0
0
0
0
0
0
0
0
0
0
0
0
0
0
0
0
0
0
0
0
0
0
0
0
0
0
0
0
0
0
0
0
0
0
0
0
0
0
0
0
0
0
0
0
0
0
0
0
0
0
0
0
0
0
0
0
0
0
0
0
0
0
0
0
0
0
0
0
0
0
0
0
0
0
0
0
2.94729e-11
0
0
0
0
0
4.24047e-17
0
0
0
9.28781e-15
6.31661e-18
0
0
0
0
0
0
0
-1.45409e-22
4.10319e-10
-4.3885e-13
3.68864e-17
-8.44811e-15
0
1.19028e-12
6.60026e-11
-2.05486e-10
-1.62231e-10
4.13755e-09
-6.14813e-08
1.14352e-08
7.62889e-11
2.01982e-13
6.68431e-15
5.61227e-15
6.35594e-15
7.63082e-14
-2.43139e-15
9.6275e-13
-1.28114e-11
3.50849e-07
3.16362e-10
-6.33952e-12
-4.72882e-12
-3.81194e-12
1.65373e-12
3.64987e-12
1.01651e-15
-2.71701e-11
-2.83551e-10
)
;

boundaryField
{
    fuel
    {
        type            calculated;
        value           nonuniform 0();
    }
    wall
    {
        type            calculated;
        value           nonuniform 0();
    }
    outlet
    {
        type            calculated;
        value           nonuniform List<scalar> 
25
(
0
0
0
0
0
0
0
0
0
0
-4.38853e-13
0
0
0
2.86548e-19
3.16282e-15
0
0
0
0
0
2.94726e-11
4.10313e-10
-1.28112e-11
-2.83544e-10
)
;
    }
    frontAndBack
    {
        type            empty;
    }
    procBoundary0to1
    {
        type            processor;
        value           nonuniform List<scalar> 
21
(
1.03483e-11
-2.39593e-12
-3.51906e-12
1.12602e-12
3.48941e-13
8.79383e-10
-7.64706e-08
1.66244e-09
-1.96709e-08
-5.62478e-06
-5.62478e-06
-7.01909e-07
-1.58665e-10
-3.02876e-11
-9.3157e-12
-1.49907e-11
-1.47546e-11
-3.05902e-11
-1.70325e-11
-1.24242e-11
-5.02818e-10
)
;
    }
    procBoundary0to2
    {
        type            processor;
        value           uniform 0;
    }
    procBoundary0to3
    {
        type            processor;
        value           uniform 0;
    }
}

diagonal:  Solving for moment.1.populationBalance, Initial residual = 0, Final residual = 0, No Iterations 0
aggregationSource : dimensions      [0 3 -1 0 0 0 0];

internalField   nonuniform List<scalar> 
250
(
0
0
0
0
0
0
0
0
0
0
0
0
0
0
0
0
0
0
0
277.611
0
0
0
0
0
0
0
0
0
0
0
0
0
0
0
0
0
0
0
48921.4
0
0
0
0
0
0
0
0
0
0
0
0
0
0
0
0
0
0
0
16579.2
0
0
0
0
0
0
0
0
0
0
0
0
0
0
0
0
0
0
0
5.32271e+06
0
0
0
0
0
0
0
0
0
0
0
0
0
0
0
0
0
0
0
3.99176e+08
0
0
0
0
0
0
0
0
0
0
0
0
0
0
0
0
0
0
0
4.35584e+14
0
0
0
0
0
0
0
0
0
0
0
0
0
0
0
0
0
0
0
7.79297e+13
0
0
0
0
0
0
0
0
0
0
0
0
0
0
0
0
0
0
0
1.20773e-11
0
0
0
0
0
0
0
0
0
0
0
0
0
0
0
0
0
0
0
0
0.00166904
0
0
0
0
0
0
0
0
0
0
0
0
0
0
0
0
0
0.000797575
1.10869e+07
0.209072
0.000508804
0.000555644
0
0.000222729
0.000809059
0
0
0.0279794
6692.96
0.00771851
0
0
1.82404e-05
0.000450143
0.000160242
0.000459372
6.56994e-05
0.0109886
2.84734e+09
3.64716e+07
3785.2
41264.1
0
2.73896e+06
1.00966e+08
1.75927e+09
2.95231e+08
1.55882e+09
1.24814e+11
3.23064e+10
7.8803e+07
2.16841e+06
137632
178584
20754.5
136462
2411.29
1.92681e+08
4.27316e+10
8.67955e+12
4.79788e+10
2.54487e+09
7.25633e+08
9.04353e+08
3.98626e+08
1.04193e+09
1.77676e+08
1.89454e+10
2.55471e+11
)
;

boundaryField
{
    fuel
    {
        type            calculated;
        value           nonuniform 0();
    }
    wall
    {
        type            calculated;
        value           nonuniform 0();
    }
    outlet
    {
        type            calculated;
        value           nonuniform List<scalar> 
25
(
0
0
0
0
0
0
0
0
0.00166906
0.209073
3.64719e+07
0
277.605
48920.8
16579.2
5.32272e+06
3.99176e+08
4.35584e+14
7.79295e+13
1.20772e-11
0
1.10868e+07
2.8473e+09
4.27309e+10
2.55465e+11
)
;
    }
    frontAndBack
    {
        type            empty;
    }
    procBoundary0to1
    {
        type            processor;
        value           nonuniform List<scalar> 
21
(
8.72424e+09
5.92259e+08
7.59048e+08
3.62952e+08
6.74582e+09
1.51137e+11
2.25383e+12
1.66595e+11
1.18336e+12
3.12012e+13
3.12012e+13
3.12553e+13
2.35875e+11
4.14106e+10
2.28297e+10
2.84566e+10
1.64378e+10
3.3621e+10
1.03091e+10
2.10656e+11
8.09383e+11
)
;
    }
    procBoundary0to2
    {
        type            processor;
        value           uniform 0;
    }
    procBoundary0to3
    {
        type            processor;
        value           nonuniform List<scalar> 10(0 0 0 0 0 0 0 0 0 4.42811e-05);
    }
}

diagonal:  Solving for moment.2.populationBalance, Initial residual = 0, Final residual = 0, No Iterations 0
aggregationSource : dimensions      [0 6 -1 0 0 0 0];

internalField   nonuniform List<scalar> 
250
(
0
0
0
0
0
0
0
0
0
0
0
0
0
0
0
0
0
0
0
202.996
0
0
0
0
0
0
0
0
0
0
0
0
0
0
0
0
0
0
0
28255.2
0
0
0
0
0
0
0
0
0
0
0
0
0
0
0
0
0
0
0
25141.9
0
0
0
0
0
0
0
0
0
0
0
0
0
0
0
0
0
0
0
1.89281e+06
0
0
0
0
0
0
0
0
0
0
0
0
0
0
0
0
0
0
0
1.29839e+08
0
0
0
0
0
0
0
0
0
0
0
0
0
0
0
0
0
0
0
1.69283e+14
0
0
0
0
0
0
0
0
0
0
0
0
0
0
0
0
0
0
0
4.56269e+13
0
0
0
0
0
0
0
0
0
0
0
0
0
0
0
0
0
0
0
1.34596e-11
0
0
0
0
0
0
0
0
0
0
0
0
0
0
0
0
0
0
0
0
0.00016998
0
0
0
0
0
0
0
0
0
0
0
0
0
0
0
0
0
9.00499e-05
6.28832e+08
0.526794
5.21285e-05
0.000103016
0
3.63267e-05
8.49759e-05
0
0
0.0149679
123.068
0.000681329
0
0
9.9168e-06
0.000106941
2.22879e-05
9.93761e-05
4.0201e-06
0.0339689
3.46255e+12
1.33492e+11
494963
9.13936e+06
0
3.97307e+08
1.58429e+10
2.7908e+11
9.97405e+10
3.28291e+11
3.89776e+13
1.00771e+13
1.8471e+10
8.36121e+08
4.80987e+07
7.61358e+07
4.98574e+06
4.59611e+07
534757
1.67391e+12
2.8909e+14
9.89659e+16
5.38387e+14
5.37676e+13
1.72358e+13
2.35055e+13
8.42245e+12
2.59527e+13
2.87265e+12
1.04146e+15
6.617e+15
)
;

boundaryField
{
    fuel
    {
        type            calculated;
        value           nonuniform 0();
    }
    wall
    {
        type            calculated;
        value           nonuniform 0();
    }
    outlet
    {
        type            calculated;
        value           nonuniform List<scalar> 
25
(
0
0
0
0
0
0
0
0
0.000169982
0.526797
1.33493e+11
0
202.991
28254.8
25142
1.89281e+06
1.29839e+08
1.69283e+14
4.56268e+13
1.34595e-11
0
6.28826e+08
3.4625e+12
2.89085e+14
6.61685e+15
)
;
    }
    frontAndBack
    {
        type            empty;
    }
    procBoundary0to1
    {
        type            processor;
        value           nonuniform List<scalar> 
21
(
2.9471e+14
9.03386e+12
1.62796e+13
5.42809e+12
8.63335e+13
1.41428e+15
1.96604e+16
1.99747e+15
1.28265e+16
2.89563e+17
2.89563e+17
1.04873e+18
1.24684e+16
3.94062e+15
2.25084e+15
2.96592e+15
1.49949e+15
3.46655e+15
7.67376e+14
3.11213e+16
6.25627e+16
)
;
    }
    procBoundary0to2
    {
        type            processor;
        value           uniform 0;
    }
    procBoundary0to3
    {
        type            processor;
        value           nonuniform List<scalar> 10(0 0 0 0 0 0 0 0 0 3.95696e-05);
    }
}

diagonal:  Solving for moment.3.populationBalance, Initial residual = 0, Final residual = 0, No Iterations 0
aggregationSource : dimensions      [0 9 -1 0 0 0 0];

internalField   nonuniform List<scalar> 
250
(
0
0
0
0
0
0
0
0
0
0
0
0
0
0
0
0
0
0
0
115.45
0
0
0
0
0
0
0
0
0
0
0
0
0
0
0
0
0
0
0
12692.7
0
0
0
0
0
0
0
0
0
0
0
0
0
0
0
0
0
0
0
29654.8
0
0
0
0
0
0
0
0
0
0
0
0
0
0
0
0
0
0
0
523660
0
0
0
0
0
0
0
0
0
0
0
0
0
0
0
0
0
0
0
3.28473e+07
0
0
0
0
0
0
0
0
0
0
0
0
0
0
0
0
0
0
0
5.11697e+13
0
0
0
0
0
0
0
0
0
0
0
0
0
0
0
0
0
0
0
2.07776e+13
0
0
0
0
0
0
0
0
0
0
0
0
0
0
0
0
0
0
0
1.16668e-11
0
0
0
0
0
0
0
0
0
0
0
0
0
0
0
0
0
0
0
0
1.34643e-05
0
0
0
0
0
0
0
0
0
0
0
0
0
0
0
0
0
7.9077e-06
4.43301e+10
1.03239
4.1539e-06
1.48548e-05
0
4.60819e-06
9.86222e-06
0
0
0.00622787
1.83204
9.53384e-05
0
0
4.19337e-06
1.97655e-05
2.4111e-06
1.67207e-05
1.91323e-07
0.0820217
5.83293e+15
5.55356e+14
7.79109e+07
2.09262e+09
0
5.07584e+10
2.01784e+12
3.61275e+13
2.86562e+13
5.82783e+13
1.02788e+16
2.78037e+15
3.97936e+12
3.45529e+11
1.75012e+10
3.2931e+10
1.39374e+09
1.56283e+10
1.29532e+08
1.47486e+16
2.7946e+18
1.02913e+21
6.94607e+18
1.26166e+18
4.23189e+17
6.17289e+17
1.85507e+17
6.48792e+17
5.28484e+16
5.73914e+19
2.46156e+20
)
;

boundaryField
{
    fuel
    {
        type            calculated;
        value           nonuniform 0();
    }
    wall
    {
        type            calculated;
        value           nonuniform 0();
    }
    outlet
    {
        type            calculated;
        value           nonuniform List<scalar> 
25
(
0
0
0
0
0
0
0
0
1.34644e-05
1.03239
5.5536e+14
0
115.447
12692.5
29654.9
523661
3.28473e+07
5.11697e+13
2.07775e+13
1.16667e-11
0
4.43298e+10
5.83285e+15
2.79456e+18
2.4615e+20
)
;
    }
    frontAndBack
    {
        type            empty;
    }
    procBoundary0to1
    {
        type            processor;
        value           nonuniform List<scalar> 
21
(
1.07593e+19
1.51305e+17
3.59399e+17
8.65986e+16
1.30204e+18
1.37773e+19
1.58826e+20
2.48637e+19
1.28325e+20
2.52958e+21
2.52958e+21
3.69627e+22
8.30421e+20
3.86814e+20
2.20799e+20
3.02993e+20
1.37596e+20
3.48861e+20
6.09909e+19
4.44678e+21
6.23363e+21
)
;
    }
    procBoundary0to2
    {
        type            processor;
        value           uniform 0;
    }
    procBoundary0to3
    {
        type            processor;
        value           nonuniform List<scalar> 10(0 0 0 0 0 0 0 0 0 2.75017e-05);
    }
}

diagonal:  Solving for moment.4.populationBalance, Initial residual = 0, Final residual = 0, No Iterations 0
ExecutionTime = 5.35 s  ClockTime = 5 s

Courant Number mean: 0.0912112 max: 0.496768
deltaT = 2.38095e-05
Time = 0.00104761904762

PIMPLE: iteration 1
aggregationSource : dimensions      [0 -3 -1 0 0 0 0];

internalField   nonuniform List<scalar> 
250
(
0
0
0
0
0
0
0
0
0
-11.2682
0
0
0
0
0
0
0
0
0
-1567.03
0
0
0
0
0
0
0
0
0
0
0
0
0
0
0
0
0
0
0
-5.38537e+06
0
0
0
0
0
0
0
0
0
0
0
0
0
0
0
0
0
0
0
-2.51456e+06
0
0
0
0
0
0
0
0
0
0
0
0
0
0
0
0
0
0
0
-6.34751e+10
0
0
0
0
0
0
0
0
0
0
0
0
0
0
0
0
0
0
0
-4.32707e+11
0
0
0
0
0
0
0
0
0
0
0
0
0
0
0
0
0
0
0
-1.01485e+19
0
0
0
0
0
0
0
0
0
0
0
0
0
0
0
0
0
0
0
-1.21546e+18
0
0
0
0
0
0
0
0
0
0
0
0
0
0
0
0
0
0
0
-2.76688e+13
0
0
0
0
0
0
0
0
0
0
0
0
0
0
0
0
0
0
0
-1.4885
-0.724135
0
0
0
0
0
0
0
0
0
0
0
0
0
0
0
0
0
-0.281553
-55889.3
-0.200372
0
-0.0727435
-0.0450461
-3.82118
-27673.6
-0.0356441
-0.0365894
0
-1.00845e+08
-1882.54
0
-0.0354988
-0.0416472
-0.114745
0
0
0
-0.00949129
-140810
-118.828
-48.3062
-26.2972
0
-1525.21
-27101.6
-2.11925e+06
-138351
-2.94211e+06
-2.08554e+08
-1.05007e+07
-51186.2
-270.807
-28.8998
-25.521
-16.875
-30.5001
-15.9635
-72.1984
-42827
-1.54007e+07
-9888.65
-161.51
-37.0806
-36.0894
-28.5486
-43.33
-35.1122
-144.568
-12591.8
)
;

boundaryField
{
    fuel
    {
        type            calculated;
        value           nonuniform 0();
    }
    wall
    {
        type            calculated;
        value           nonuniform 0();
    }
    outlet
    {
        type            calculated;
        value           nonuniform List<scalar> 
25
(
0
0
0
0
0
0
0
0
-0.724141
-0.200373
-118.829
-11.2678
-1566.99
-5.38529e+06
-2.51457e+06
-6.34753e+10
-4.32707e+11
-1.01485e+19
-1.21545e+18
-2.76686e+13
-1.48848
-55888.7
-140808
-42826.2
-12591.5
)
;
    }
    frontAndBack
    {
        type            empty;
    }
    procBoundary0to1
    {
        type            processor;
        value           nonuniform List<scalar> 
21
(
-239.197
-103.154
-46.7101
-35.0038
-849.767
-87886.8
-6.21391e+06
-26008.2
-7.83655e+06
-2.28719e+08
-2.28719e+08
-1.38713e+06
-2054.96
-108.558
-50.1045
-52.1248
-44.6471
-61.4704
-56.9247
-175.552
-4406.82
)
;
    }
    procBoundary0to2
    {
        type            processor;
        value           uniform 0;
    }
    procBoundary0to3
    {
        type            processor;
        value           uniform 0;
    }
}

diagonal:  Solving for moment.0.populationBalance, Initial residual = 0, Final residual = 0, No Iterations 0
aggregationSource : dimensions      [0 0 -1 0 0 0 0];

internalField   nonuniform List<scalar> 
250
(
0
0
0
0
0
0
0
0
0
0
0
0
0
0
0
0
0
0
0
3.98988e-16
0
0
0
0
0
0
0
0
0
0
0
0
0
0
0
0
0
0
0
0
0
0
0
0
0
0
0
0
0
0
0
0
0
0
0
0
0
0
0
0
0
0
0
0
0
0
0
0
0
0
0
0
0
0
0
0
0
0
0
0
0
0
0
0
0
0
0
0
0
0
0
0
0
0
0
0
0
0
0
0
0
0
0
0
0
0
0
0
0
0
0
0
0
0
0
0
0
0
0
0
0
0
0
0
0
0
0
0
0
0
0
0
0
0
0
0
0
0
0
0
0
0
0
0
0
0
0
0
0
0
0
0
0
0
0
0
0
0
0
-7.6905e-11
0
0
0
0
0
0
0
0
0
0
0
0
0
0
0
0
0
0
0
0
0
0
0
0
0
0
0
0
0
0
0
0
0
0
0
0
0
0
0
8.13468e-12
0
0
0
0
0
0
0
0
0
0
0
0
0
0
0
0
0
0
0
7.31401e-12
1.69975e-12
-2.5218e-15
2.69246e-15
0
-3.45439e-13
-1.90229e-12
2.83679e-09
1.58793e-10
-1.51154e-09
-4.20945e-08
3.07386e-08
-4.44108e-11
5.22828e-14
1.13923e-14
-8.44494e-15
-5.16673e-15
4.80346e-14
-7.65015e-15
8.85661e-13
1.3875e-09
-5.66372e-07
-4.33085e-10
-2.39401e-11
1.26005e-12
-3.92268e-12
2.57727e-12
3.33656e-12
-1.18801e-12
3.26853e-11
-4.76563e-10
)
;

boundaryField
{
    fuel
    {
        type            calculated;
        value           nonuniform 0();
    }
    wall
    {
        type            calculated;
        value           nonuniform 0();
    }
    outlet
    {
        type            calculated;
        value           nonuniform List<scalar> 
25
(
0
0
0
0
0
0
0
0
0
0
1.69976e-12
0
3.98978e-16
0
0
0
0
0
0
-7.69046e-11
0
8.1346e-12
7.31418e-12
1.38747e-09
-4.76552e-10
)
;
    }
    frontAndBack
    {
        type            empty;
    }
    procBoundary0to1
    {
        type            processor;
        value           nonuniform List<scalar> 
21
(
-8.08989e-12
-7.65931e-12
-1.75399e-12
-3.41829e-13
8.87752e-11
6.41714e-10
-2.37946e-08
1.59758e-09
-1.56428e-07
-8.17324e-06
-8.17324e-06
1.86875e-07
3.94164e-10
9.50136e-12
-1.38555e-11
2.59507e-11
-2.50099e-14
-2.06086e-12
-3.08213e-11
-5.03212e-12
2.78661e-11
)
;
    }
    procBoundary0to2
    {
        type            processor;
        value           uniform 0;
    }
    procBoundary0to3
    {
        type            processor;
        value           uniform 0;
    }
}

diagonal:  Solving for moment.1.populationBalance, Initial residual = 0, Final residual = 0, No Iterations 0
aggregationSource : dimensions      [0 3 -1 0 0 0 0];

internalField   nonuniform List<scalar> 
250
(
0
0
0
0
0
0
0
0
0
0.384959
0
0
0
0
0
0
0
0
0
0.847716
0
0
0
0
0
0
0
0
0
0
0
0
0
0
0
0
0
0
0
399210
0
0
0
0
0
0
0
0
0
0
0
0
0
0
0
0
0
0
0
109047
0
0
0
0
0
0
0
0
0
0
0
0
0
0
0
0
0
0
0
1.78364e+09
0
0
0
0
0
0
0
0
0
0
0
0
0
0
0
0
0
0
0
1.01733e+10
0
0
0
0
0
0
0
0
0
0
0
0
0
0
0
0
0
0
0
3.40624e+17
0
0
0
0
0
0
0
0
0
0
0
0
0
0
0
0
0
0
0
9.25898e+16
0
0
0
0
0
0
0
0
0
0
0
0
0
0
0
0
0
0
0
1.59287e+10
0
0
0
0
0
0
0
0
0
0
0
0
0
0
0
0
0
0
0
0.593359
0.00166904
0
0
0
0
0
0
0
0
0
0
0
0
0
0
0
0
0
0.000797575
1.07473e+07
0.282694
0
0.000555644
1.32229e-05
0.175554
1487.7
0.000271255
0.000589452
0
1.07245e+07
185.003
0
0.000586547
0.00035066
0.00896078
0
0
0
0.0200739
3.09264e+09
3.91915e+07
4121.87
44379.5
0
3.30656e+06
1.15876e+08
1.88171e+09
3.3134e+08
1.71711e+09
1.38907e+11
3.67074e+10
9.07818e+07
2.51304e+06
154263
196576
22880.1
149688
2700.13
2.14756e+08
4.99188e+10
1.07384e+13
5.94034e+10
3.06031e+09
8.32055e+08
1.03137e+09
4.50442e+08
1.18736e+09
1.99258e+08
2.16022e+10
3.07716e+11
)
;

boundaryField
{
    fuel
    {
        type            calculated;
        value           nonuniform 0();
    }
    wall
    {
        type            calculated;
        value           nonuniform 0();
    }
    outlet
    {
        type            calculated;
        value           nonuniform List<scalar> 
25
(
0
0
0
0
0
0
0
0
0.00166906
0.282695
3.91918e+07
0.384945
0.847694
399205
109047
1.78364e+09
1.01733e+10
3.40624e+17
9.25895e+16
1.59286e+10
0.593354
1.07472e+07
3.0926e+09
4.99179e+10
3.07708e+11
)
;
    }
    frontAndBack
    {
        type            empty;
    }
    procBoundary0to1
    {
        type            processor;
        value           nonuniform List<scalar> 
21
(
9.66531e+09
6.62365e+08
8.59026e+08
4.43594e+08
8.70438e+09
1.90067e+11
2.64153e+12
2.03158e+11
1.47254e+12
4.18554e+13
4.18554e+13
4.10224e+13
3.0345e+11
4.96329e+10
2.64917e+10
3.30219e+10
1.8913e+10
3.90195e+10
1.1735e+10
2.44163e+11
9.87339e+11
)
;
    }
    procBoundary0to2
    {
        type            processor;
        value           uniform 0;
    }
    procBoundary0to3
    {
        type            processor;
        value           uniform 0;
    }
}

diagonal:  Solving for moment.2.populationBalance, Initial residual = 0, Final residual = 0, No Iterations 0
aggregationSource : dimensions      [0 6 -1 0 0 0 0];

internalField   nonuniform List<scalar> 
250
(
0
0
0
0
0
0
0
0
0
0.151054
0
0
0
0
0
0
0
0
0
0.148323
0
0
0
0
0
0
0
0
0
0
0
0
0
0
0
0
0
0
0
230569
0
0
0
0
0
0
0
0
0
0
0
0
0
0
0
0
0
0
0
48172.2
0
0
0
0
0
0
0
0
0
0
0
0
0
0
0
0
0
0
0
6.34255e+08
0
0
0
0
0
0
0
0
0
0
0
0
0
0
0
0
0
0
0
3.30903e+09
0
0
0
0
0
0
0
0
0
0
0
0
0
0
0
0
0
0
0
1.32378e+17
0
0
0
0
0
0
0
0
0
0
0
0
0
0
0
0
0
0
0
5.42102e+16
0
0
0
0
0
0
0
0
0
0
0
0
0
0
0
0
0
0
0
8.10762e+08
0
0
0
0
0
0
0
0
0
0
0
0
0
0
0
0
0
0
0
0.79471
0.00016998
0
0
0
0
0
0
0
0
0
0
0
0
0
0
0
0
0
9.00499e-05
6.54394e+08
0.712298
0
0.000103016
4.80583e-07
0.079822
731.719
5.01972e-05
0.00016097
0
7.41905e+06
123.027
0
0.000159939
7.3785e-05
0.005312
0
0
0
0.0619418
3.98608e+12
1.5094e+11
570033
1.02759e+07
0
5.22274e+08
1.99384e+10
3.28496e+11
1.21204e+11
3.95794e+11
4.78184e+13
1.2373e+13
2.30497e+10
1.02477e+09
5.67807e+07
8.81011e+07
5.81515e+06
5.29351e+07
633220
1.97945e+12
3.55616e+14
1.33745e+17
7.2058e+14
6.81742e+13
2.09496e+13
2.84701e+13
1.01135e+13
3.14195e+13
3.43709e+12
1.26163e+15
8.31793e+15
)
;

boundaryField
{
    fuel
    {
        type            calculated;
        value           nonuniform 0();
    }
    wall
    {
        type            calculated;
        value           nonuniform 0();
    }
    outlet
    {
        type            calculated;
        value           nonuniform List<scalar> 
25
(
0
0
0
0
0
0
0
0
0.000169982
0.712302
1.50941e+11
0.151048
0.148319
230566
48172.3
6.34257e+08
3.30903e+09
1.32378e+17
5.42101e+16
8.10758e+08
0.794703
6.54389e+08
3.98603e+12
3.5561e+14
8.31774e+15
)
;
    }
    frontAndBack
    {
        type            empty;
    }
    procBoundary0to1
    {
        type            processor;
        value           nonuniform List<scalar> 
21
(
3.44794e+14
1.07351e+13
1.95157e+13
6.99572e+12
1.18176e+14
1.963e+15
2.5828e+16
2.66463e+15
1.73503e+16
4.18195e+17
4.18195e+17
1.50732e+18
1.68801e+16
4.97865e+15
2.77301e+15
3.65905e+15
1.83386e+15
4.27771e+15
9.29743e+14
3.83486e+16
7.90707e+16
)
;
    }
    procBoundary0to2
    {
        type            processor;
        value           uniform 0;
    }
    procBoundary0to3
    {
        type            processor;
        value           uniform 0;
    }
}

diagonal:  Solving for moment.3.populationBalance, Initial residual = 0, Final residual = 0, No Iterations 0
aggregationSource : dimensions      [0 9 -1 0 0 0 0];

internalField   nonuniform List<scalar> 
250
(
0
0
0
0
0
0
0
0
0
0.0461039
0
0
0
0
0
0
0
0
0
0.0281356
0
0
0
0
0
0
0
0
0
0
0
0
0
0
0
0
0
0
0
103575
0
0
0
0
0
0
0
0
0
0
0
0
0
0
0
0
0
0
0
16551.4
0
0
0
0
0
0
0
0
0
0
0
0
0
0
0
0
0
0
0
1.75419e+08
0
0
0
0
0
0
0
0
0
0
0
0
0
0
0
0
0
0
0
8.37135e+08
0
0
0
0
0
0
0
0
0
0
0
0
0
0
0
0
0
0
0
4.00143e+16
0
0
0
0
0
0
0
0
0
0
0
0
0
0
0
0
0
0
0
2.46862e+16
0
0
0
0
0
0
0
0
0
0
0
0
0
0
0
0
0
0
0
3.21019e+07
0
0
0
0
0
0
0
0
0
0
0
0
0
0
0
0
0
0
0
0.827857
1.34643e-05
0
0
0
0
0
0
0
0
0
0
0
0
0
0
0
0
0
7.9077e-06
4.89847e+10
1.39593
0
1.48548e-05
1.35852e-08
0.0282287
279.918
7.22498e-06
3.41951e-05
0
3.99184e+06
63.6326
0
3.39203e-05
1.20807e-05
0.00244921
0
0
0
0.148743
7.10486e+15
6.64582e+14
9.48289e+07
2.47255e+09
0
7.17332e+10
2.77344e+12
4.67832e+13
3.78245e+13
7.68696e+13
1.38741e+16
3.71142e+15
5.38223e+12
4.4536e+11
2.18087e+10
4.02195e+10
1.7266e+09
1.89801e+10
1.62367e+08
1.85533e+16
3.59196e+18
1.52435e+21
9.89853e+18
1.68881e+18
5.46885e+17
7.96057e+17
2.37415e+17
8.36394e+17
6.76673e+16
7.40427e+19
3.21468e+20
)
;

boundaryField
{
    fuel
    {
        type            calculated;
        value           nonuniform 0();
    }
    wall
    {
        type            calculated;
        value           nonuniform 0();
    }
    outlet
    {
        type            calculated;
        value           nonuniform List<scalar> 
25
(
0
0
0
0
0
0
0
0
1.34644e-05
1.39594
6.64586e+14
0.0461023
0.0281349
103574
16551.4
1.7542e+08
8.37135e+08
4.00143e+16
2.46862e+16
3.21017e+07
0.82785
4.89843e+10
7.10477e+15
3.5919e+18
3.21461e+20
)
;
    }
    frontAndBack
    {
        type            empty;
    }
    procBoundary0to1
    {
        type            processor;
        value           nonuniform List<scalar> 
21
(
1.33509e+19
1.91744e+17
4.57722e+17
1.17739e+17
1.86156e+18
2.06048e+19
2.30945e+20
3.57613e+19
1.89138e+20
3.98198e+21
3.98198e+21
5.73233e+22
1.17512e+21
5.17671e+20
2.89575e+20
3.98237e+20
1.79308e+20
4.5865e+20
7.88944e+19
5.83663e+21
8.22358e+21
)
;
    }
    procBoundary0to2
    {
        type            processor;
        value           uniform 0;
    }
    procBoundary0to3
    {
        type            processor;
        value           uniform 0;
    }
}

diagonal:  Solving for moment.4.populationBalance, Initial residual = 0, Final residual = 0, No Iterations 0
ExecutionTime = 10.49 s  ClockTime = 10 s

Courant Number mean: 0.0912112 max: 0.496768
deltaT = 2.38095e-05
Time = 0.00107142857143

PIMPLE: iteration 1
aggregationSource : dimensions      [0 -3 -1 0 0 0 0];

internalField   nonuniform List<scalar> 
250
(
0
0
0
0
0
0
0
0
0
-94746.3
0
0
0
0
0
0
0
0
0
-25239.7
0
0
0
0
0
0
0
0
0
0
0
0
0
0
0
0
0
0
0
-2.48732e+08
0
0
0
0
0
0
0
0
0
0
0
0
0
0
0
0
0
0
0
-1.76836e+08
0
0
0
0
0
0
0
0
0
0
0
0
0
0
0
0
0
0
0
-4.2543e+12
0
0
0
0
0
0
0
0
0
0
0
0
0
0
0
0
0
0
0
-1.07121e+14
0
0
0
0
0
0
0
0
0
0
0
0
0
0
0
0
0
0
0
-5.63001e+11
0
0
0
0
0
0
0
0
0
0
0
0
0
0
0
0
0
0
0
-1.51821e+20
0
0
0
0
0
0
0
0
0
0
0
0
0
0
0
0
0
0
0
0
0
0
0
0
0
0
0
0
0
0
0
0
0
0
0
0
0
0
0
-5.71778e-25
-0.724135
0
0
0
0
0
0
0
0
0
0
0
0
0
0
0
0
0
-0.281553
-40169.5
-0.148189
-0.218128
-1.98213e-29
-0.0587216
-8344.85
0
0
-0.355902
-147.764
-9.01701e+07
-1701.14
-0.0493309
-0.133849
-0.13506
-0.0357203
-0.0386442
-0.0441716
-0.0789629
-0.00536774
-120231
-118.307
-48.5282
-26.5767
0
-1569.87
-39841.9
-1.9522e+06
-118604
-2.7992e+06
-2.19199e+08
-9.31141e+06
-45717.6
-274.225
-29.3802
-25.8439
-17.024
-30.781
-16.0545
-72.6778
-45133.4
-1.04209e+07
-10692.5
-173.512
-38.1992
-36.9385
-29.0346
-44.3008
-35.4218
-147.805
-14230.2
)
;

boundaryField
{
    fuel
    {
        type            calculated;
        value           nonuniform 0();
    }
    wall
    {
        type            calculated;
        value           nonuniform 0();
    }
    outlet
    {
        type            calculated;
        value           nonuniform List<scalar> 
25
(
0
0
0
0
0
0
0
0
-0.724141
-0.148189
-118.308
-94742.9
-25239.1
-2.48728e+08
-1.76837e+08
-4.25431e+12
-1.07121e+14
-5.63001e+11
-1.5182e+20
0
-5.71773e-25
-40169.1
-120229
-45132.6
-14229.9
)
;
    }
    frontAndBack
    {
        type            empty;
    }
    procBoundary0to1
    {
        type            processor;
        value           nonuniform List<scalar> 
21
(
-241.995
-104.203
-47.6142
-37.4849
-924.049
-162481
-7.82008e+06
-29607.3
-4.79942e+06
-1.47369e+08
-1.47369e+08
-1.13201e+06
-2316.22
-117.3
-52.0672
-53.9834
-45.9648
-63.6242
-58.1475
-181.473
-4938.08
)
;
    }
    procBoundary0to2
    {
        type            processor;
        value           uniform 0;
    }
    procBoundary0to3
    {
        type            processor;
        value           nonuniform List<scalar> 10(0 0 0 0 0 0 0 0 0 -1285.59);
    }
}

diagonal:  Solving for moment.0.populationBalance, Initial residual = 0, Final residual = 0, No Iterations 0
aggregationSource : dimensions      [0 0 -1 0 0 0 0];

internalField   nonuniform List<scalar> 
250
(
0
0
0
0
0
0
0
0
0
0
0
0
0
0
0
0
0
0
0
-2.03409e-27
0
0
0
0
0
0
0
0
0
0
0
0
0
0
0
0
0
0
0
0
0
0
0
0
0
0
0
0
0
0
0
0
0
0
0
0
0
0
0
5.82607e-25
0
0
0
0
0
0
0
0
0
0
0
0
0
0
0
0
0
0
0
0
0
0
0
0
0
0
0
0
0
0
0
0
0
0
0
0
0
0
0
0
0
0
0
0
0
0
0
0
0
0
0
0
0
0
0
0
0
0
0
0
0
0
0
0
0
0
0
0
0
0
0
0
0
0
0
0
0
0
0
0
0
0
0
0
0
0
0
0
0
0
0
0
0
0
0
0
0
0
0
0
0
0
0
0
0
0
0
0
0
0
0
0
0
0
0
0
0
0
0
0
0
0
0
0
0
0
0
0
0
0
0
0
0
0
0
0
0
0
0
-9.65086e-12
0
0
0
0
0
0
0
0
-5.86125e-18
6.20177e-15
-2.01076e-17
0
0
0
0
0
0
0
0
-5.76262e-10
-8.47933e-13
-9.74098e-15
1.31226e-14
0
-1.937e-12
-9.08347e-12
8.16103e-10
1.62073e-10
-2.21039e-09
4.84512e-08
1.33392e-09
2.56984e-11
-1.47791e-13
-4.04162e-15
-5.56563e-14
7.53297e-15
-2.21671e-14
2.91296e-15
-1.12475e-12
-6.82041e-10
2.3293e-08
1.07109e-10
-3.19494e-11
-3.68074e-12
1.47433e-12
-4.18375e-12
-4.56124e-15
-2.03799e-12
-3.56768e-11
7.07155e-10
)
;

boundaryField
{
    fuel
    {
        type            calculated;
        value           nonuniform 0();
    }
    wall
    {
        type            calculated;
        value           nonuniform 0();
    }
    outlet
    {
        type            calculated;
        value           nonuniform List<scalar> 
25
(
0
0
0
0
0
0
0
0
0
0
-8.4794e-13
0
-2.03404e-27
0
5.82609e-25
0
0
0
0
0
0
-9.65076e-12
-5.76254e-10
-6.82029e-10
7.07139e-10
)
;
    }
    frontAndBack
    {
        type            empty;
    }
    procBoundary0to1
    {
        type            processor;
        value           nonuniform List<scalar> 
21
(
1.74841e-11
-9.9263e-13
2.04612e-12
-3.0843e-12
-1.3517e-10
2.36771e-09
1.50431e-07
3.12439e-10
-9.5672e-09
4.97097e-06
4.97097e-06
-3.24698e-08
1.00699e-09
3.40302e-11
-9.44266e-12
-1.21114e-11
2.52948e-11
-2.60645e-12
2.78378e-12
1.04928e-10
9.33762e-11
)
;
    }
    procBoundary0to2
    {
        type            processor;
        value           uniform 0;
    }
    procBoundary0to3
    {
        type            processor;
        value           uniform 0;
    }
}

diagonal:  Solving for moment.1.populationBalance, Initial residual = 0, Final residual = 0, No Iterations 0
aggregationSource : dimensions      [0 3 -1 0 0 0 0];

internalField   nonuniform List<scalar> 
250
(
0
0
0
0
0
0
0
0
0
15519.3
0
0
0
0
0
0
0
0
0
2998.98
0
0
0
0
0
0
0
0
0
0
0
0
0
0
0
0
0
0
0
1.84381e+07
0
0
0
0
0
0
0
0
0
0
0
0
0
0
0
0
0
0
0
7.66872e+06
0
0
0
0
0
0
0
0
0
0
0
0
0
0
0
0
0
0
0
1.19545e+11
0
0
0
0
0
0
0
0
0
0
0
0
0
0
0
0
0
0
0
2.5185e+12
0
0
0
0
0
0
0
0
0
0
0
0
0
0
0
0
0
0
0
1.88965e+10
0
0
0
0
0
0
0
0
0
0
0
0
0
0
0
0
0
0
0
1.15652e+19
0
0
0
0
0
0
0
0
0
0
0
0
0
0
0
0
0
0
0
0
0
0
0
0
0
0
0
0
0
0
0
0
0
0
0
0
0
0
0
6.64728e-25
0.00166904
0
0
0
0
0
0
0
0
0
0
0
0
0
0
0
0
0
0.000797575
1.02775e+07
0.209071
0.000508804
1.08804e-30
0.000412537
383.381
0
0
0.0340036
0.00318315
6714.36
0.0856894
0.000424859
0.000586553
0.00887131
0.00278951
0.000160258
0.000459372
6.56994e-05
0.0113576
3.29832e+09
4.2003e+07
4470.58
47607
0
3.94767e+06
1.3156e+08
1.99739e+09
3.69145e+08
1.88226e+09
1.57547e+11
4.1381e+10
1.03863e+08
2.89506e+06
172545
215870
25126.8
163568
3008.16
2.38555e+08
5.76175e+10
1.28895e+13
7.28745e+10
3.66504e+09
9.50803e+08
1.17163e+09
5.07076e+08
1.34765e+09
2.22725e+08
2.45307e+10
3.68164e+11
)
;

boundaryField
{
    fuel
    {
        type            calculated;
        value           nonuniform 0();
    }
    wall
    {
        type            calculated;
        value           nonuniform 0();
    }
    outlet
    {
        type            calculated;
        value           nonuniform List<scalar> 
25
(
0
0
0
0
0
0
0
0
0.00166906
0.209072
4.20033e+07
15518.8
2998.9
1.84379e+07
7.66874e+06
1.19545e+11
2.5185e+12
1.88965e+10
1.15652e+19
0
6.64723e-25
1.02774e+07
3.29827e+09
5.76165e+10
3.68156e+11
)
;
    }
    frontAndBack
    {
        type            empty;
    }
    procBoundary0to1
    {
        type            processor;
        value           nonuniform List<scalar> 
21
(
1.06671e+10
7.38195e+08
9.69285e+08
5.41698e+08
1.11387e+10
2.35909e+11
3.06325e+12
2.45289e+11
1.7974e+12
5.30788e+13
5.30788e+13
5.30179e+13
3.87827e+11
5.931e+10
3.06236e+10
3.81593e+10
2.16713e+10
4.50915e+10
1.33073e+10
2.8178e+11
1.19811e+12
)
;
    }
    procBoundary0to2
    {
        type            processor;
        value           uniform 0;
    }
    procBoundary0to3
    {
        type            processor;
        value           nonuniform List<scalar> 10(0 0 0 0 0 0 0 0 0 228.127);
    }
}

diagonal:  Solving for moment.2.populationBalance, Initial residual = 0, Final residual = 0, No Iterations 0
aggregationSource : dimensions      [0 6 -1 0 0 0 0];

internalField   nonuniform List<scalar> 
250
(
0
0
0
0
0
0
0
0
0
13324
0
0
0
0
0
0
0
0
0
2192.92
0
0
0
0
0
0
0
0
0
0
0
0
0
0
0
0
0
0
0
1.06492e+07
0
0
0
0
0
0
0
0
0
0
0
0
0
0
0
0
0
0
0
3.3877e+06
0
0
0
0
0
0
0
0
0
0
0
0
0
0
0
0
0
0
0
4.25097e+10
0
0
0
0
0
0
0
0
0
0
0
0
0
0
0
0
0
0
0
8.19185e+11
0
0
0
0
0
0
0
0
0
0
0
0
0
0
0
0
0
0
0
7.34386e+09
0
0
0
0
0
0
0
0
0
0
0
0
0
0
0
0
0
0
0
6.77131e+18
0
0
0
0
0
0
0
0
0
0
0
0
0
0
0
0
0
0
0
0
0
0
0
0
0
0
0
0
0
0
0
0
0
0
0
0
0
0
0
1.5204e-24
0.00016998
0
0
0
0
0
0
0
0
0
0
0
0
0
0
0
0
0
9.00499e-05
6.73421e+08
0.526793
5.21285e-05
5.4076e-31
7.33502e-05
174.318
0
0
0.0222961
0.000226652
123.461
0.00310064
9.75118e-05
0.00015994
0.00482308
0.00165363
2.2289e-05
9.93761e-05
4.0201e-06
0.0350807
4.50965e+12
1.69944e+11
652882
1.15109e+07
0
6.78422e+08
2.4765e+10
3.82645e+11
1.45932e+11
4.73339e+11
5.88991e+13
1.50493e+13
2.85029e+10
1.2486e+09
6.68315e+07
1.01582e+08
6.74899e+06
6.06808e+07
745118
2.32923e+12
4.32328e+14
1.76342e+17
9.54976e+14
8.60202e+13
2.53385e+13
3.42965e+13
1.20802e+13
3.78281e+13
4.09246e+12
1.51975e+15
1.0383e+16
)
;

boundaryField
{
    fuel
    {
        type            calculated;
        value           nonuniform 0();
    }
    wall
    {
        type            calculated;
        value           nonuniform 0();
    }
    outlet
    {
        type            calculated;
        value           nonuniform List<scalar> 
25
(
0
0
0
0
0
0
0
0
0.000169982
0.526796
1.69945e+11
13323.5
2192.87
1.0649e+07
3.38771e+06
4.25098e+10
8.19185e+11
7.34386e+09
6.77129e+18
0
1.52039e-24
6.73416e+08
4.50959e+12
4.32321e+14
1.03827e+16
)
;
    }
    frontAndBack
    {
        type            empty;
    }
    procBoundary0to1
    {
        type            processor;
        value           nonuniform List<scalar> 
21
(
4.0123e+14
1.26927e+13
2.32879e+13
9.0039e+12
1.60738e+14
2.68734e+15
3.34668e+16
3.51475e+15
2.30345e+16
5.7849e+17
5.7849e+17
2.13292e+18
2.27147e+16
6.26155e+15
3.39782e+15
4.48834e+15
2.23019e+15
5.24812e+15
1.12052e+15
4.69785e+16
9.94147e+16
)
;
    }
    procBoundary0to2
    {
        type            processor;
        value           uniform 0;
    }
    procBoundary0to3
    {
        type            processor;
        value           nonuniform List<scalar> 10(0 0 0 0 0 0 0 0 0 203.854);
    }
}

diagonal:  Solving for moment.3.populationBalance, Initial residual = 0, Final residual = 0, No Iterations 0
aggregationSource : dimensions      [0 9 -1 0 0 0 0];

internalField   nonuniform List<scalar> 
250
(
0
0
0
0
0
0
0
0
0
8897.16
0
0
0
0
0
0
0
0
0
1247.18
0
0
0
0
0
0
0
0
0
0
0
0
0
0
0
0
0
0
0
4.78378e+06
0
0
0
0
0
0
0
0
0
0
0
0
0
0
0
0
0
0
0
1.16397e+06
0
0
0
0
0
0
0
0
0
0
0
0
0
0
0
0
0
0
0
1.17571e+10
0
0
0
0
0
0
0
0
0
0
0
0
0
0
0
0
0
0
0
2.07242e+11
0
0
0
0
0
0
0
0
0
0
0
0
0
0
0
0
0
0
0
2.21985e+09
0
0
0
0
0
0
0
0
0
0
0
0
0
0
0
0
0
0
0
3.08352e+18
0
0
0
0
0
0
0
0
0
0
0
0
0
0
0
0
0
0
0
0
0
0
0
0
0
0
0
0
0
0
0
0
0
0
0
0
0
0
0
2.70476e-24
1.34643e-05
0
0
0
0
0
0
0
0
0
0
0
0
0
0
0
0
0
7.9077e-06
5.34614e+10
1.03238
4.1539e-06
2.09036e-31
1.01437e-05
61.6469
0
0
0.0113707
2.4826e-05
1.83775
0.000293375
1.74654e-05
3.39204e-05
0.00203946
0.000762443
2.41116e-06
1.67207e-05
1.91323e-07
0.0844956
8.50822e+15
7.907e+14
1.14657e+08
2.90744e+09
0
1.0027e+11
3.76307e+12
5.97887e+13
4.93677e+13
1.00331e+14
1.86608e+16
4.89687e+15
7.20147e+12
5.70586e+11
2.70667e+10
4.88855e+10
2.12574e+09
2.29204e+10
2.02038e+08
2.31898e+16
4.566e+18
2.20553e+21
1.39758e+19
2.24676e+18
7.02175e+17
1.0195e+18
3.01795e+17
1.0707e+18
8.60827e+16
9.4844e+19
4.16959e+20
)
;

boundaryField
{
    fuel
    {
        type            calculated;
        value           nonuniform 0();
    }
    wall
    {
        type            calculated;
        value           nonuniform 0();
    }
    outlet
    {
        type            calculated;
        value           nonuniform List<scalar> 
25
(
0
0
0
0
0
0
0
0
1.34644e-05
1.03239
7.90705e+14
8896.84
1247.15
4.78372e+06
1.16398e+06
1.17572e+10
2.07242e+11
2.21985e+09
3.08351e+18
0
2.70474e-24
5.3461e+10
8.50811e+15
4.56592e+18
4.1695e+20
)
;
    }
    frontAndBack
    {
        type            empty;
    }
    procBoundary0to1
    {
        type            processor;
        value           nonuniform List<scalar> 
21
(
1.6453e+19
2.41397e+17
5.79335e+17
1.59605e+17
2.64726e+18
3.04464e+19
3.30621e+20
5.08567e+19
2.73341e+20
6.02215e+21
6.02215e+21
8.75622e+22
1.65216e+21
6.88474e+20
3.77122e+20
5.19631e+20
2.32e+20
5.98585e+20
1.01363e+20
7.60457e+21
1.0781e+22
)
;
    }
    procBoundary0to2
    {
        type            processor;
        value           uniform 0;
    }
    procBoundary0to3
    {
        type            processor;
        value           nonuniform List<scalar> 10(0 0 0 0 0 0 0 0 0 141.683);
    }
}

diagonal:  Solving for moment.4.populationBalance, Initial residual = 0, Final residual = 0, No Iterations 0
ExecutionTime = 15.61 s  ClockTime = 16 s

Courant Number mean: 0.0912112 max: 0.496768
deltaT = 2.38095e-05
Time = 0.00109523809524

PIMPLE: iteration 1
aggregationSource : dimensions      [0 -3 -1 0 0 0 0];

internalField   nonuniform List<scalar> 
250
(
0
0
0
0
0
0
0
0
0
0
0
0
0
0
0
0
0
0
0
-261399
0
0
0
0
0
0
0
0
0
0
0
0
0
0
0
0
0
0
0
-73.8875
0
0
0
0
0
0
0
0
0
0
0
0
0
0
0
0
0
0
0
-1.19852e+10
0
0
0
0
0
0
0
0
0
0
0
0
0
0
0
0
0
0
0
-3.14928e+14
0
0
0
0
0
0
0
0
0
0
0
0
0
0
0
0
0
0
0
-1.32975e+16
0
0
0
0
0
0
0
0
0
0
0
0
0
0
0
0
0
0
0
-9.36477e+14
0
0
0
0
0
0
0
0
0
0
0
0
0
0
0
0
0
0
0
0
0
0
0
0
0
0
0
0
0
0
0
0
0
0
0
0
0
0
0
-4.10621e+18
0
0
0
0
0
0
0
0
0
0
0
0
0
0
0
0
0
0
0
-1.48849
-0.724135
0
0
0
0
0
0
0
0
0
0
0
0
0
0
0
0
0
-0.281553
-28823.8
-0.200372
-0.218128
-0.0727435
-134.366
-7294.19
-0.0359692
-0.037067
-8.4259
-7151.56
-1.00584e+08
-32403.9
-2.21057
-4.62875
-5.40196
0
-1.10292e-08
0
0
-0.00975594
-100190
-117.655
-49.26
-26.6336
0
-2700.28
-41816.7
-1.79736e+06
-102827
-2.66775e+06
-2.27955e+08
-8.2515e+06
-41013.2
-276.574
-29.9899
-26.02
-17.303
-31.2032
-16.3688
-73.118
-45939.3
-7.79593e+06
-11405.1
-185.785
-39.3178
-37.7725
-29.5003
-45.2443
-35.7047
-150.964
-15877.1
)
;

boundaryField
{
    fuel
    {
        type            calculated;
        value           nonuniform 0();
    }
    wall
    {
        type            calculated;
        value           nonuniform 0();
    }
    outlet
    {
        type            calculated;
        value           nonuniform List<scalar> 
25
(
0
0
0
0
0
0
0
0
-0.724141
-0.200373
-117.656
0
-261393
-73.8865
-1.19852e+10
-3.14929e+14
-1.32975e+16
-9.36478e+14
0
-4.10619e+18
-1.48848
-28823.5
-100189
-45938.5
-15876.8
)
;
    }
    frontAndBack
    {
        type            empty;
    }
    procBoundary0to1
    {
        type            processor;
        value           nonuniform List<scalar> 
21
(
-244.644
-105.18
-48.5217
-40.0994
-999.028
-255664
-9.31872e+06
-32639.2
-3.284e+06
-1.07545e+08
-1.07545e+08
-1.03049e+06
-2599.04
-126.655
-54.0611
-55.8455
-47.2698
-65.7756
-59.3413
-187.37
-5534.55
)
;
    }
    procBoundary0to2
    {
        type            processor;
        value           uniform 0;
    }
    procBoundary0to3
    {
        type            processor;
        value           nonuniform List<scalar> 10(0 0 0 0 0 0 0 0 0 -0.246968);
    }
}

diagonal:  Solving for moment.0.populationBalance, Initial residual = 0, Final residual = 0, No Iterations 0
aggregationSource : dimensions      [0 0 -1 0 0 0 0];

internalField   nonuniform List<scalar> 
250
(
0
0
0
0
0
0
0
0
0
0
0
0
0
0
0
0
0
0
0
0
0
0
0
0
0
0
0
0
0
0
0
0
0
0
0
0
0
0
0
0
0
0
0
0
0
0
0
0
0
0
0
0
0
0
0
0
0
0
0
0
0
0
0
0
0
0
0
0
0
0
0
0
0
0
0
0
0
0
0
0
0
0
0
0
0
0
0
0
0
0
0
0
0
0
0
0
0
0
0
0
0
0
0
0
0
0
0
0
0
0
0
0
0
0
0
0
0
0
0
0
0
0
0
0
0
0
0
0
0
0
0
0
0
0
0
0
0
0
0
0
0
0
0
0
0
0
0
0
0
0
0
0
0
0
0
0
0
0
0
0
0
0
0
0
0
0
0
0
0
0
0
0
0
0
0
0
0
0
0
0
0
0
0
0
0
0
0
0
0
0
0
0
0
0
0
0
0
0
0
-1.06917e-11
0
0
0
4.5434e-29
-5.29028e-17
0
0
7.76385e-23
0
0
0
0
0
0
0
0
0
0
-5.78078e-23
4.59928e-11
-8.71912e-13
2.17852e-15
-2.17808e-16
0
3.85658e-13
-4.87173e-11
-5.05853e-10
-7.66365e-11
1.21559e-09
-5.59993e-07
1.72509e-08
-8.64204e-12
1.85022e-13
-4.688e-15
5.47687e-14
-4.97914e-15
4.15725e-14
-1.22468e-15
4.3403e-12
-2.23234e-10
-8.07081e-09
-1.17952e-10
3.6995e-11
-1.52123e-12
6.60899e-13
1.97131e-12
7.46801e-12
1.09732e-12
-7.39305e-11
-2.64762e-09
)
;

boundaryField
{
    fuel
    {
        type            calculated;
        value           nonuniform 0();
    }
    wall
    {
        type            calculated;
        value           nonuniform 0();
    }
    outlet
    {
        type            calculated;
        value           nonuniform List<scalar> 
25
(
0
0
0
0
0
0
0
0
0
0
-8.71919e-13
0
0
0
0
0
0
0
0
0
0
-1.06915e-11
4.5992e-11
-2.23231e-10
-2.64756e-09
)
;
    }
    frontAndBack
    {
        type            empty;
    }
    procBoundary0to1
    {
        type            processor;
        value           nonuniform List<scalar> 
21
(
2.79578e-11
-1.15316e-12
-2.21006e-12
2.16505e-12
6.12438e-11
9.96384e-09
-2.29022e-07
-9.99001e-10
-1.2239e-08
-8.71283e-07
-8.71283e-07
1.28357e-07
-7.1054e-10
5.06731e-12
-3.39232e-11
-3.56141e-11
6.88686e-12
1.3812e-11
-1.09964e-11
-2.12344e-10
2.70806e-09
)
;
    }
    procBoundary0to2
    {
        type            processor;
        value           uniform 0;
    }
    procBoundary0to3
    {
        type            processor;
        value           uniform 0;
    }
}

diagonal:  Solving for moment.1.populationBalance, Initial residual = 0, Final residual = 0, No Iterations 0
aggregationSource : dimensions      [0 3 -1 0 0 0 0];

internalField   nonuniform List<scalar> 
250
(
0
0
0
0
0
0
0
0
0
0
0
0
0
0
0
0
0
0
0
31059.4
0
0
0
0
0
0
0
0
0
0
0
0
0
0
0
0
0
0
0
5.47718
0
0
0
0
0
0
0
0
0
0
0
0
0
0
0
0
0
0
0
5.19754e+08
0
0
0
0
0
0
0
0
0
0
0
0
0
0
0
0
0
0
0
8.84941e+12
0
0
0
0
0
0
0
0
0
0
0
0
0
0
0
0
0
0
0
3.12634e+14
0
0
0
0
0
0
0
0
0
0
0
0
0
0
0
0
0
0
0
3.14318e+13
0
0
0
0
0
0
0
0
0
0
0
0
0
0
0
0
0
0
0
0
0
0
0
0
0
0
0
0
0
0
0
0
0
0
0
0
0
0
0
2.3639e+15
0
0
0
0
0
0
0
0
0
0
0
0
0
0
0
0
0
0
0
0.593358
0.00166904
0
0
0
0
0
0
0
0
0
0
0
0
0
0
0
0
0
0.000797575
9.69633e+06
0.282693
0.000508804
0.000555644
0.943958
0.000254863
0.000266666
0.000271462
0.805029
454.814
1.06968e+07
3184.42
0.16561
0.441099
0.354823
0
4.07695e-10
0
0
0.0206332
3.46002e+09
4.48866e+07
4844.49
50891.3
0
4.67228e+06
1.47734e+08
2.10532e+09
4.09589e+08
2.05721e+09
1.8077e+11
4.62685e+10
1.18026e+08
3.31614e+06
192607
236187
27551.1
178347
3348.85
2.6412e+08
6.57286e+10
1.52184e+13
8.86277e+10
4.37138e+09
1.08295e+09
1.326e+09
5.68762e+08
1.52368e+09
2.48149e+08
2.77472e+10
4.37377e+11
)
;

boundaryField
{
    fuel
    {
        type            calculated;
        value           nonuniform 0();
    }
    wall
    {
        type            calculated;
        value           nonuniform 0();
    }
    outlet
    {
        type            calculated;
        value           nonuniform List<scalar> 
25
(
0
0
0
0
0
0
0
0
0.00166906
0.282695
4.4887e+07
0
31058.6
5.47711
5.19755e+08
8.84943e+12
3.12634e+14
3.14318e+13
0
2.36389e+15
0.593353
9.69624e+06
3.45998e+09
6.57275e+10
4.37367e+11
)
;
    }
    frontAndBack
    {
        type            empty;
    }
    procBoundary0to1
    {
        type            processor;
        value           nonuniform List<scalar> 
21
(
1.17301e+10
8.19951e+08
1.09069e+09
6.60714e+08
1.41363e+10
2.89236e+11
3.51751e+12
2.93436e+11
2.15979e+12
6.55298e+13
6.55298e+13
6.77043e+13
4.92437e+11
7.06699e+10
3.52712e+10
4.39196e+10
2.47341e+10
5.18955e+10
1.50353e+10
3.2385e+11
1.44634e+12
)
;
    }
    procBoundary0to2
    {
        type            processor;
        value           uniform 0;
    }
    procBoundary0to3
    {
        type            processor;
        value           nonuniform List<scalar> 10(0 0 0 0 0 0 0 0 0 0.0438242);
    }
}

diagonal:  Solving for moment.2.populationBalance, Initial residual = 0, Final residual = 0, No Iterations 0
aggregationSource : dimensions      [0 6 -1 0 0 0 0];

internalField   nonuniform List<scalar> 
250
(
0
0
0
0
0
0
0
0
0
0
0
0
0
0
0
0
0
0
0
22711.4
0
0
0
0
0
0
0
0
0
0
0
0
0
0
0
0
0
0
0
3.16342
0
0
0
0
0
0
0
0
0
0
0
0
0
0
0
0
0
0
0
2.29604e+08
0
0
0
0
0
0
0
0
0
0
0
0
0
0
0
0
0
0
0
3.14682e+12
0
0
0
0
0
0
0
0
0
0
0
0
0
0
0
0
0
0
0
1.0169e+14
0
0
0
0
0
0
0
0
0
0
0
0
0
0
0
0
0
0
0
1.22155e+13
0
0
0
0
0
0
0
0
0
0
0
0
0
0
0
0
0
0
0
0
0
0
0
0
0
0
0
0
0
0
0
0
0
0
0
0
0
0
0
1.20318e+14
0
0
0
0
0
0
0
0
0
0
0
0
0
0
0
0
0
0
0
0.794709
0.00016998
0
0
0
0
0
0
0
0
0
0
0
0
0
0
0
0
0
9.00499e-05
6.85156e+08
0.712298
5.21285e-05
0.000103016
0.167838
3.88593e-05
4.87071e-05
5.02168e-05
0.527858
243.308
7.39986e+06
2117.64
0.0961578
0.288854
0.192907
0
1.66279e-10
0
0
0.0636642
5.02458e+12
1.90512e+11
745990
1.28385e+07
0
8.72104e+08
3.03727e+10
4.41429e+11
1.74482e+11
5.62321e+11
7.26141e+13
1.8133e+13
3.49407e+10
1.51269e+09
7.84387e+07
1.16599e+08
7.81023e+06
6.93234e+07
874769
2.72778e+12
5.19694e+14
2.28786e+17
1.25375e+15
1.08022e+14
3.05035e+13
4.11018e+13
1.43563e+13
4.53032e+13
4.84982e+12
1.82083e+15
1.28668e+16
)
;

boundaryField
{
    fuel
    {
        type            calculated;
        value           nonuniform 0();
    }
    wall
    {
        type            calculated;
        value           nonuniform 0();
    }
    outlet
    {
        type            calculated;
        value           nonuniform List<scalar> 
25
(
0
0
0
0
0
0
0
0
0.000169982
0.712302
1.90513e+11
0
22710.8
3.16337
2.29605e+08
3.14683e+12
1.0169e+14
1.22155e+13
0
1.20317e+14
0.794703
6.85151e+08
5.02451e+12
5.19685e+14
1.28665e+16
)
;
    }
    frontAndBack
    {
        type            empty;
    }
    procBoundary0to1
    {
        type            processor;
        value           nonuniform List<scalar> 
21
(
4.64519e+14
1.4935e+13
2.76704e+13
1.15718e+13
2.17195e+14
3.63058e+15
4.28093e+16
4.58684e+15
3.01002e+16
7.81579e+17
7.81579e+17
2.97863e+18
3.03809e+16
7.84098e+15
4.14194e+15
5.47548e+15
2.69758e+15
6.40298e+15
1.34365e+15
5.7229e+16
1.24343e+17
)
;
    }
    procBoundary0to2
    {
        type            processor;
        value           uniform 0;
    }
    procBoundary0to3
    {
        type            processor;
        value           nonuniform List<scalar> 10(0 0 0 0 0 0 0 0 0 0.0391613);
    }
}

diagonal:  Solving for moment.3.populationBalance, Initial residual = 0, Final residual = 0, No Iterations 0
aggregationSource : dimensions      [0 9 -1 0 0 0 0];

internalField   nonuniform List<scalar> 
250
(
0
0
0
0
0
0
0
0
0
0
0
0
0
0
0
0
0
0
0
12916.6
0
0
0
0
0
0
0
0
0
0
0
0
0
0
0
0
0
0
0
1.42106
0
0
0
0
0
0
0
0
0
0
0
0
0
0
0
0
0
0
0
7.88892e+07
0
0
0
0
0
0
0
0
0
0
0
0
0
0
0
0
0
0
0
8.70332e+11
0
0
0
0
0
0
0
0
0
0
0
0
0
0
0
0
0
0
0
2.5726e+13
0
0
0
0
0
0
0
0
0
0
0
0
0
0
0
0
0
0
0
3.69242e+12
0
0
0
0
0
0
0
0
0
0
0
0
0
0
0
0
0
0
0
0
0
0
0
0
0
0
0
0
0
0
0
0
0
0
0
0
0
0
0
4.76307e+12
0
0
0
0
0
0
0
0
0
0
0
0
0
0
0
0
0
0
0
0.827856
1.34643e-05
0
0
0
0
0
0
0
0
0
0
0
0
0
0
0
0
0
7.9077e-06
5.76474e+10
1.39593
4.1539e-06
1.48548e-05
0.0232105
4.79179e-06
6.91947e-06
7.2266e-06
0.269206
101.236
3.98151e+06
1095.3
0.0434248
0.147122
0.0815717
0
5.27467e-11
0
0
0.152854
1.00369e+16
9.35352e+14
1.38112e+08
3.40097e+09
0
1.38726e+11
5.03216e+12
7.54789e+13
6.38292e+13
1.29744e+14
2.49691e+16
6.38845e+15
9.53653e+12
7.26809e+11
3.34638e+10
5.90961e+10
2.60599e+09
2.75525e+10
2.50463e+08
2.88058e+16
5.74219e+18
3.1375e+21
1.95548e+19
2.97143e+18
8.96023e+17
1.29704e+18
3.8115e+17
1.36146e+18
1.08828e+17
1.20661e+20
5.37005e+20
)
;

boundaryField
{
    fuel
    {
        type            calculated;
        value           nonuniform 0();
    }
    wall
    {
        type            calculated;
        value           nonuniform 0();
    }
    outlet
    {
        type            calculated;
        value           nonuniform List<scalar> 
25
(
0
0
0
0
0
0
0
0
1.34644e-05
1.39594
9.35358e+14
0
12916.3
1.42104
7.88894e+07
8.70335e+11
2.5726e+13
3.69242e+12
0
4.76304e+12
0.82785
5.7647e+10
1.00368e+16
5.74209e+18
5.36993e+20
)
;
    }
    frontAndBack
    {
        type            empty;
    }
    procBoundary0to1
    {
        type            processor;
        value           nonuniform List<scalar> 
21
(
2.01427e+19
3.01999e+17
7.28976e+17
2.15751e+17
3.74423e+18
4.44503e+19
4.66366e+20
7.15394e+19
3.88437e+20
8.89868e+21
8.89868e+21
1.32002e+23
2.30817e+21
9.10194e+20
4.87865e+20
6.73333e+20
2.9813e+20
7.75754e+20
1.29387e+20
9.8383e+21
1.40477e+22
)
;
    }
    procBoundary0to2
    {
        type            processor;
        value           uniform 0;
    }
    procBoundary0to3
    {
        type            processor;
        value           nonuniform List<scalar> 10(0 0 0 0 0 0 0 0 0 0.0272179);
    }
}

diagonal:  Solving for moment.4.populationBalance, Initial residual = 0, Final residual = 0, No Iterations 0
ExecutionTime = 20.74 s  ClockTime = 21 s

Courant Number mean: 0.0912112 max: 0.496768
deltaT = 2.38095e-05
Time = 0.00111904761905

PIMPLE: iteration 1
aggregationSource : dimensions      [0 -3 -1 0 0 0 0];

internalField   nonuniform List<scalar> 
250
(
0
0
0
0
0
0
0
0
0
-12.0505
0
0
0
0
0
0
0
0
0
-150915
0
0
0
0
0
0
0
0
0
0
0
0
0
0
0
0
0
0
0
-33772.7
0
0
0
0
0
0
0
0
0
0
0
0
0
0
0
0
0
0
0
-4.98778e-23
0
0
0
0
0
0
0
0
0
0
0
0
0
0
0
0
0
0
0
-1.98566e+16
0
0
0
0
0
0
0
0
0
0
0
0
0
0
0
0
0
0
0
-7.85653e+17
0
0
0
0
0
0
0
0
0
0
0
0
0
0
0
0
0
0
0
-9.45401e+17
0
0
0
0
0
0
0
0
0
0
0
0
0
0
0
0
0
0
0
-2.82887e+13
0
0
0
0
0
0
0
0
0
0
0
0
0
0
0
0
0
0
0
-5.94955e+15
0
0
0
0
0
0
0
0
0
0
0
0
0
0
0
0
0
0
0
0
-0.724135
0
0
0
0
0
0
0
0
0
0
0
0
0
0
0
0
0
-0.281553
-20767.9
-0.208293
0
0
-2968.99
-27729
0
-2.61002
-205.626
-727173
-8.99369e+07
-29078.8
-3.22161
0
-2.03272e-08
-0.0443707
-0.0372742
-0.0441723
-0.0789629
-0.00538824
-81863.2
-117.145
-49.9494
-26.8877
0
-3826.99
-43495.4
-1.65409e+06
-90595.1
-2.56167e+06
-2.31098e+08
-7.36749e+06
-36922
-282.76
-32.4609
-26.0261
-17.4285
-31.4305
-16.4457
-73.566
-45405.7
-6.22834e+06
-12018.8
-198.243
-40.4417
-38.5864
-29.9548
-46.1663
-35.989
-154.043
-17442.2
)
;

boundaryField
{
    fuel
    {
        type            calculated;
        value           nonuniform 0();
    }
    wall
    {
        type            calculated;
        value           nonuniform 0();
    }
    outlet
    {
        type            calculated;
        value           nonuniform List<scalar> 
25
(
0
0
0
0
0
0
0
0
-0.724141
-0.208294
-117.146
-12.0501
-150912
-33772.2
-4.98779e-23
-1.98567e+16
-7.85653e+17
-9.45401e+17
-2.82886e+13
-5.94951e+15
0
-20767.7
-81862.1
-45404.9
-17441.8
)
;
    }
    frontAndBack
    {
        type            empty;
    }
    procBoundary0to1
    {
        type            processor;
        value           nonuniform List<scalar> 
21
(
-247.141
-106.142
-49.4227
-42.842
-1091.72
-359778
-1.06982e+07
-34882.6
-2.37056e+06
-8.44989e+07
-8.44989e+07
-983135
-2901.85
-136.641
-56.0864
-57.7098
-48.5607
-67.9224
-60.5047
-193.238
-6191.36
)
;
    }
    procBoundary0to2
    {
        type            processor;
        value           uniform 0;
    }
    procBoundary0to3
    {
        type            processor;
        value           uniform 0;
    }
}

diagonal:  Solving for moment.0.populationBalance, Initial residual = 0, Final residual = 0, No Iterations 0
aggregationSource : dimensions      [0 0 -1 0 0 0 0];

internalField   nonuniform List<scalar> 
250
(
0
0
0
0
0
0
0
0
0
1.65191e-17
0
0
0
0
0
0
0
0
0
-6.33036e-15
0
0
0
0
0
0
0
0
0
0
0
0
0
0
0
0
0
0
0
0
0
0
0
0
0
0
0
0
0
0
0
0
0
0
0
0
0
0
0
0
0
0
0
0
0
0
0
0
0
0
0
0
0
0
0
0
0
0
0
0
0
0
0
0
0
0
0
0
0
0
0
0
0
0
0
0
0
0
0
0
0
0
0
0
0
0
0
0
0
0
0
0
0
0
0
0
0
0
0
0
0
0
0
0
0
0
0
0
0
0
0
0
0
0
0
0
0
0
0
-5.30335e-11
0
0
0
0
0
0
0
0
0
0
0
0
0
0
0
0
0
0
0
0
0
0
0
0
0
0
0
0
0
0
0
0
0
0
0
0
0
0
0
0
0
0
0
0
0
0
0
0
0
0
0
0
0
0
0
0
0
0
0
-1.29002e-11
0
0
0
-4.04636e-22
0
0
0
0
0
1.0839e-14
-1.94653e-16
0
0
0
0
0
0
0
-1.94386e-22
-3.77626e-10
-8.57048e-13
-1.10198e-14
-2.72004e-14
0
-1.06483e-12
-2.12772e-11
-2.98069e-09
-2.72576e-11
-3.23015e-09
-2.26162e-07
-1.65168e-09
2.90211e-11
2.47983e-13
-2.77795e-14
-3.75882e-14
-6.71927e-15
2.00358e-14
-3.61363e-15
-8.48891e-13
-2.36923e-10
6.32878e-08
-1.12658e-09
2.22356e-11
-1.13355e-13
-7.83071e-13
9.56214e-14
7.79284e-12
-7.77808e-13
-3.60093e-11
-1.26234e-10
)
;

boundaryField
{
    fuel
    {
        type            calculated;
        value           nonuniform 0();
    }
    wall
    {
        type            calculated;
        value           nonuniform 0();
    }
    outlet
    {
        type            calculated;
        value           nonuniform List<scalar> 
25
(
0
0
0
0
0
0
0
0
0
0
-8.57056e-13
1.65185e-17
-6.33021e-15
0
0
0
0
0
-5.30333e-11
0
0
-1.29001e-11
-3.77621e-10
-2.36919e-10
-1.26231e-10
)
;
    }
    frontAndBack
    {
        type            empty;
    }
    procBoundary0to1
    {
        type            processor;
        value           nonuniform List<scalar> 
21
(
6.42594e-11
-7.16467e-12
6.67005e-13
1.58271e-13
-7.23778e-11
-8.48899e-09
-1.21978e-07
-4.58196e-09
-1.25174e-07
-4.67424e-07
-4.67424e-07
2.82907e-08
-1.77103e-10
6.87317e-12
1.16021e-11
6.59303e-12
-2.06465e-11
-4.32668e-11
3.97814e-11
-1.69843e-10
-1.28647e-09
)
;
    }
    procBoundary0to2
    {
        type            processor;
        value           uniform 0;
    }
    procBoundary0to3
    {
        type            processor;
        value           uniform 0;
    }
}

diagonal:  Solving for moment.1.populationBalance, Initial residual = 0, Final residual = 0, No Iterations 0
aggregationSource : dimensions      [0 3 -1 0 0 0 0];

internalField   nonuniform List<scalar> 
250
(
0
0
0
0
0
0
0
0
0
0.389578
0
0
0
0
0
0
0
0
0
27.2873
0
0
0
0
0
0
0
0
0
0
0
0
0
0
0
0
0
0
0
2503.53
0
0
0
0
0
0
0
0
0
0
0
0
0
0
0
0
0
0
0
2.16301e-24
0
0
0
0
0
0
0
0
0
0
0
0
0
0
0
0
0
0
0
5.57967e+14
0
0
0
0
0
0
0
0
0
0
0
0
0
0
0
0
0
0
0
1.84713e+16
0
0
0
0
0
0
0
0
0
0
0
0
0
0
0
0
0
0
0
3.17314e+16
0
0
0
0
0
0
0
0
0
0
0
0
0
0
0
0
0
0
0
290678
0
0
0
0
0
0
0
0
0
0
0
0
0
0
0
0
0
0
0
1.6421e+15
0
0
0
0
0
0
0
0
0
0
0
0
0
0
0
0
0
0
0
0
0.00166904
0
0
0
0
0
0
0
0
0
0
0
0
0
0
0
0
0
0.000797575
9.03711e+06
0.29387
0
0
20.8581
1273.93
0
0.142898
19.6459
46245.7
6697
1.29203
0.241355
0
1.33517e-09
0.000451151
0.000160242
0.000459372
6.56994e-05
0.0114013
3.57551e+09
4.78549e+07
5237.35
54325.7
0
5.46556e+06
1.6437e+08
2.20477e+09
4.52921e+08
2.24727e+09
2.11725e+11
5.13697e+10
1.33228e+08
3.78697e+06
216378
257436
30097.6
193765
3709.77
2.91518e+08
7.4137e+10
1.77886e+13
1.0691e+11
5.19277e+09
1.22965e+09
1.49535e+09
6.35755e+08
1.71636e+09
2.75636e+08
3.12679e+10
5.15744e+11
)
;

boundaryField
{
    fuel
    {
        type            calculated;
        value           nonuniform 0();
    }
    wall
    {
        type            calculated;
        value           nonuniform 0();
    }
    outlet
    {
        type            calculated;
        value           nonuniform List<scalar> 
25
(
0
0
0
0
0
0
0
0
0.00166906
0.293871
4.78552e+07
0.389564
27.2866
2503.49
2.16302e-24
5.57969e+14
1.84713e+16
3.17314e+16
290677
1.64209e+15
0
9.03703e+06
3.57546e+09
7.41357e+10
5.15733e+11
)
;
    }
    frontAndBack
    {
        type            empty;
    }
    procBoundary0to1
    {
        type            processor;
        value           nonuniform List<scalar> 
21
(
1.28545e+10
9.07899e+08
1.22417e+09
8.04648e+08
1.78145e+10
3.50571e+11
4.00245e+12
3.48065e+11
2.55106e+12
7.93457e+13
7.93457e+13
8.55397e+13
6.21227e+11
8.39709e+10
4.04836e+10
5.03558e+10
2.81234e+10
5.94924e+10
1.69288e+10
3.7073e+11
1.73689e+12
)
;
    }
    procBoundary0to2
    {
        type            processor;
        value           uniform 0;
    }
    procBoundary0to3
    {
        type            processor;
        value           uniform 0;
    }
}

diagonal:  Solving for moment.2.populationBalance, Initial residual = 0, Final residual = 0, No Iterations 0
aggregationSource : dimensions      [0 6 -1 0 0 0 0];

internalField   nonuniform List<scalar> 
250
(
0
0
0
0
0
0
0
0
0
0.152117
0
0
0
0
0
0
0
0
0
1.4296
0
0
0
0
0
0
0
0
0
0
0
0
0
0
0
0
0
0
0
1445.94
0
0
0
0
0
0
0
0
0
0
0
0
0
0
0
0
0
0
0
9.55524e-25
0
0
0
0
0
0
0
0
0
0
0
0
0
0
0
0
0
0
0
1.98411e+14
0
0
0
0
0
0
0
0
0
0
0
0
0
0
0
0
0
0
0
6.0081e+15
0
0
0
0
0
0
0
0
0
0
0
0
0
0
0
0
0
0
0
1.23319e+16
0
0
0
0
0
0
0
0
0
0
0
0
0
0
0
0
0
0
0
84.9418
0
0
0
0
0
0
0
0
0
0
0
0
0
0
0
0
0
0
0
1.83005e+15
0
0
0
0
0
0
0
0
0
0
0
0
0
0
0
0
0
0
0
0
0.00016998
0
0
0
0
0
0
0
0
0
0
0
0
0
0
0
0
0
9.00499e-05
6.89682e+08
0.740458
0
0
3.70862
579.239
0
0.070929
12.8818
24739.7
123.142
0.0253243
0.140137
0
7.25896e-10
0.000107062
2.22879e-05
9.93761e-05
4.0201e-06
0.0352186
5.52322e+12
2.12746e+11
849185
1.42811e+07
0
1.1076e+09
3.68313e+10
5.04694e+11
2.07326e+11
6.64739e+11
9.01823e+13
2.16637e+13
4.24762e+10
1.82576e+09
9.2386e+07
1.33233e+08
8.99569e+06
7.885e+07
1.02087e+06
3.18007e+12
6.18025e+14
2.93258e+17
1.63122e+15
1.35021e+14
3.65582e+13
4.90135e+13
1.69789e+13
5.39809e+13
5.72165e+12
2.17034e+15
1.58262e+16
)
;

boundaryField
{
    fuel
    {
        type            calculated;
        value           nonuniform 0();
    }
    wall
    {
        type            calculated;
        value           nonuniform 0();
    }
    outlet
    {
        type            calculated;
        value           nonuniform List<scalar> 
25
(
0
0
0
0
0
0
0
0
0.000169982
0.740462
2.12748e+11
0.152111
1.42957
1445.92
9.55526e-25
1.98412e+14
6.0081e+15
1.23319e+16
84.9416
1.83004e+15
0
6.89677e+08
5.52315e+12
6.18014e+14
1.58258e+16
)
;
    }
    frontAndBack
    {
        type            empty;
    }
    procBoundary0to1
    {
        type            processor;
        value           nonuniform List<scalar> 
21
(
5.35169e+14
1.74933e+13
3.27455e+13
1.48486e+13
2.91692e+14
4.8431e+15
5.41018e+16
5.92594e+15
3.87111e+16
1.03679e+18
1.03679e+18
4.10897e+18
4.03883e+16
9.77824e+15
5.02423e+15
6.64477e+15
3.24613e+15
7.77049e+15
1.60344e+15
6.93432e+16
1.54705e+17
)
;
    }
    procBoundary0to2
    {
        type            processor;
        value           uniform 0;
    }
    procBoundary0to3
    {
        type            processor;
        value           uniform 0;
    }
}

diagonal:  Solving for moment.3.populationBalance, Initial residual = 0, Final residual = 0, No Iterations 0
aggregationSource : dimensions      [0 9 -1 0 0 0 0];

internalField   nonuniform List<scalar> 
250
(
0
0
0
0
0
0
0
0
0
0.0463078
0
0
0
0
0
0
0
0
0
0.142353
0
0
0
0
0
0
0
0
0
0
0
0
0
0
0
0
0
0
0
649.54
0
0
0
0
0
0
0
0
0
0
0
0
0
0
0
0
0
0
0
3.28306e-25
0
0
0
0
0
0
0
0
0
0
0
0
0
0
0
0
0
0
0
5.48756e+13
0
0
0
0
0
0
0
0
0
0
0
0
0
0
0
0
0
0
0
1.51996e+15
0
0
0
0
0
0
0
0
0
0
0
0
0
0
0
0
0
0
0
3.7276e+15
0
0
0
0
0
0
0
0
0
0
0
0
0
0
0
0
0
0
0
2.34803
0
0
0
0
0
0
0
0
0
0
0
0
0
0
0
0
0
0
0
1.58629e+15
0
0
0
0
0
0
0
0
0
0
0
0
0
0
0
0
0
0
0
0
1.34643e-05
0
0
0
0
0
0
0
0
0
0
0
0
0
0
0
0
0
7.9077e-06
6.14774e+10
1.45111
0
0
0.512874
204.845
0
0.0273828
6.56953
10293.7
1.83312
0.00124119
0.0632859
0
3.06949e-10
1.97784e-05
2.4111e-06
1.67207e-05
1.91323e-07
0.084848
1.16835e+16
1.10065e+15
1.65552e+08
3.96314e+09
0
1.89699e+11
6.6403e+12
9.42067e+13
8.18187e+13
1.66467e+14
3.33958e+16
8.24832e+15
1.25043e+13
9.21993e+11
4.14345e+10
7.10558e+10
3.17609e+09
3.29468e+10
3.08356e+08
3.5571e+16
7.14707e+18
4.40153e+21
2.7121e+19
3.90745e+18
1.13669e+18
1.6397e+18
4.78392e+17
1.72006e+18
1.36767e+17
1.52502e+20
6.86605e+20
)
;

boundaryField
{
    fuel
    {
        type            calculated;
        value           nonuniform 0();
    }
    wall
    {
        type            calculated;
        value           nonuniform 0();
    }
    outlet
    {
        type            calculated;
        value           nonuniform List<scalar> 
25
(
0
0
0
0
0
0
0
0
1.34644e-05
1.45112
1.10066e+15
0.0463061
0.14235
649.531
3.28307e-25
5.48758e+13
1.51996e+15
3.7276e+15
2.34803
1.58628e+15
0
6.1477e+10
1.16833e+16
7.14695e+18
6.8659e+20
)
;
    }
    frontAndBack
    {
        type            empty;
    }
    procBoundary0to1
    {
        type            processor;
        value           nonuniform List<scalar> 
21
(
2.45052e+19
3.75556e+17
9.12213e+17
2.90859e+17
5.26961e+18
6.41263e+19
6.4867e+20
9.95832e+19
5.43111e+20
1.29069e+22
1.29069e+22
1.96516e+23
3.20468e+21
1.19651e+21
6.27116e+20
8.66711e+20
3.8061e+20
9.98627e+20
1.64139e+20
1.26424e+22
1.81947e+22
)
;
    }
    procBoundary0to2
    {
        type            processor;
        value           uniform 0;
    }
    procBoundary0to3
    {
        type            processor;
        value           uniform 0;
    }
}

diagonal:  Solving for moment.4.populationBalance, Initial residual = 0, Final residual = 0, No Iterations 0
ExecutionTime = 25.88 s  ClockTime = 26 s

Courant Number mean: 0.0912112 max: 0.496768
deltaT = 2.38095e-05
Time = 0.00114285714286

PIMPLE: iteration 1
aggregationSource : dimensions      [0 -3 -1 0 0 0 0];

internalField   nonuniform List<scalar> 
250
(
0
0
0
0
0
0
0
0
0
-8000.71
0
0
0
0
0
0
0
0
0
-2.14463e+06
0
0
0
0
0
0
0
0
0
0
0
0
0
0
0
0
0
0
0
-3.70232e-05
0
0
0
0
0
0
0
0
0
0
0
0
0
0
0
0
0
0
0
-1714.23
0
0
0
0
0
0
0
0
0
0
0
0
0
0
0
0
0
0
0
-0.0312453
0
0
0
0
0
0
0
0
0
0
0
0
0
0
0
0
0
0
0
-4.40037e+19
0
0
0
0
0
0
0
0
0
0
0
0
0
0
0
0
0
0
0
-1.7202e+20
0
0
0
0
0
0
0
0
0
0
0
0
0
0
0
0
0
0
0
-3.84112e+21
0
0
0
0
0
0
0
0
0
0
0
0
0
0
0
0
0
0
0
-9.88248e-43
0
0
0
0
0
0
0
0
0
0
0
0
0
0
0
0
0
0
0
-1.43025e+14
-0.724135
0
0
0
0
0
0
0
0
0
0
0
0
0
0
0
0
0
-0.281553
-14939.9
-0.149133
-0.218128
-0.0727435
-46544.5
-24188
-0.0418244
-726.197
-15744.4
-5.74424e+07
-1.00795e+08
-545959
-56.2227
-0.0381927
-0.0355807
-1.58195
0
0
0
-0.00972624
-65875.5
-116.662
-50.0865
-26.9185
-2.64075
-6155.57
-44895.9
-1.52198e+06
-81303.4
-2.65649e+06
-2.19681e+08
-6.56812e+06
-33287
-280.861
-32.5392
-26.2154
-17.6826
-31.8037
-16.7507
-73.9738
-43786.1
-5.21223e+06
-12532.2
-210.927
-41.6437
-39.3744
-30.3891
-47.0606
-36.2472
-157.043
-18842.3
)
;

boundaryField
{
    fuel
    {
        type            calculated;
        value           nonuniform 0();
    }
    wall
    {
        type            calculated;
        value           nonuniform 0();
    }
    outlet
    {
        type            calculated;
        value           nonuniform List<scalar> 
25
(
0
0
0
0
0
0
0
0
-0.724141
-0.149134
-116.663
-8000.43
-2.14458e+06
-3.70227e-05
-1714.23
-0.0312454
-4.40037e+19
-1.7202e+20
-3.84111e+21
-9.88243e-43
-1.43024e+14
-14939.7
-65874.6
-43785.4
-18841.9
)
;
    }
    frontAndBack
    {
        type            empty;
    }
    procBoundary0to1
    {
        type            processor;
        value           nonuniform List<scalar> 
21
(
-249.5
-107.084
-50.329
-45.7571
-1201.24
-473119
-1.19508e+07
-36298.3
-1.80173e+06
-7.03822e+07
-7.03822e+07
-966132
-3222.86
-147.269
-58.1436
-59.5747
-49.8371
-70.0627
-61.6392
-199.07
-6898.17
)
;
    }
    procBoundary0to2
    {
        type            processor;
        value           uniform 0;
    }
    procBoundary0to3
    {
        type            processor;
        value           nonuniform List<scalar> 10(0 0 0 0 0 0 0 0 0 -221.554);
    }
}

diagonal:  Solving for moment.0.populationBalance, Initial residual = 0, Final residual = 0, No Iterations 0
aggregationSource : dimensions      [0 0 -1 0 0 0 0];

internalField   nonuniform List<scalar> 
250
(
0
0
0
0
0
0
0
0
0
0
0
0
0
0
0
0
0
0
0
-1.10471e-25
0
0
0
0
0
0
0
0
0
0
0
0
0
0
0
0
0
0
0
0
0
0
0
0
0
0
0
0
0
0
0
0
0
0
0
0
0
0
0
0
0
0
0
0
0
0
0
0
0
0
0
0
0
0
0
0
0
0
0
0
0
0
0
0
0
0
0
0
0
0
0
0
0
0
0
0
0
0
0
0
0
0
0
0
0
0
0
0
0
0
0
0
0
0
0
0
0
0
0
0
0
0
0
0
0
0
0
0
0
0
0
0
0
0
0
0
0
0
0
0
0
0
0
0
0
0
0
0
0
0
0
0
0
0
0
0
0
0
0
0
0
0
0
0
0
0
0
0
0
0
0
0
0
0
0
0
0
0
0
0
0
0
0
0
0
0
0
0
0
0
0
0
0
0
0
0
0
0
0
1.15368e-11
0
0
0
3.84165e-20
-1.00521e-16
0
0
0
0
0
0
0
0
0
0
0
0
0
-6.04825e-23
-2.71262e-10
-9.10943e-13
7.14069e-15
-8.57855e-15
1.03632e-22
-9.90063e-13
6.87824e-11
-5.69273e-10
3.10807e-11
3.61991e-09
-9.67476e-08
3.25219e-09
-2.23815e-11
-8.31478e-14
-1.0074e-14
-2.23185e-15
-1.56662e-15
-4.72252e-15
4.81616e-15
-3.85626e-12
5.34888e-10
1.80274e-07
7.58558e-10
-4.4988e-12
2.08289e-12
-3.50138e-12
-3.79468e-12
-5.46996e-12
7.72447e-13
2.10223e-11
-2.43488e-09
)
;

boundaryField
{
    fuel
    {
        type            calculated;
        value           nonuniform 0();
    }
    wall
    {
        type            calculated;
        value           nonuniform 0();
    }
    outlet
    {
        type            calculated;
        value           nonuniform List<scalar> 
25
(
0
0
0
0
0
0
0
0
0
0
-9.10951e-13
0
-1.10468e-25
0
0
0
0
0
0
0
0
1.15367e-11
-2.71259e-10
5.34878e-10
-2.43482e-09
)
;
    }
    frontAndBack
    {
        type            empty;
    }
    procBoundary0to1
    {
        type            processor;
        value           nonuniform List<scalar> 
21
(
-1.93146e-11
6.54461e-12
-3.57706e-12
-2.87494e-13
-1.33855e-11
-1.95488e-08
-3.15436e-07
3.26057e-09
8.31944e-08
2.26994e-06
2.26994e-06
2.74463e-08
9.18163e-10
3.84926e-11
3.21439e-11
-3.03764e-11
-1.47596e-11
-3.32709e-11
1.28278e-11
-2.99308e-11
-4.80863e-10
)
;
    }
    procBoundary0to2
    {
        type            processor;
        value           uniform 0;
    }
    procBoundary0to3
    {
        type            processor;
        value           uniform 0;
    }
}

diagonal:  Solving for moment.1.populationBalance, Initial residual = 0, Final residual = 0, No Iterations 0
aggregationSource : dimensions      [0 3 -1 0 0 0 0];

internalField   nonuniform List<scalar> 
250
(
0
0
0
0
0
0
0
0
0
1310.51
0
0
0
0
0
0
0
0
0
254824
0
0
0
0
0
0
0
0
0
0
0
0
0
0
0
0
0
0
0
2.10677e-05
0
0
0
0
0
0
0
0
0
0
0
0
0
0
0
0
0
0
0
0.0429542
0
0
0
0
0
0
0
0
0
0
0
0
0
0
0
0
0
0
0
0.000877987
0
0
0
0
0
0
0
0
0
0
0
0
0
0
0
0
0
0
0
1.03456e+18
0
0
0
0
0
0
0
0
0
0
0
0
0
0
0
0
0
0
0
5.77368e+18
0
0
0
0
0
0
0
0
0
0
0
0
0
0
0
0
0
0
0
2.92605e+20
0
0
0
0
0
0
0
0
0
0
0
0
0
0
0
0
0
0
0
2.7276e-43
0
0
0
0
0
0
0
0
0
0
0
0
0
0
0
0
0
0
0
1.22722e+13
0.00166904
0
0
0
0
0
0
0
0
0
0
0
0
0
0
0
0
0
0.000797575
8.32023e+06
0.210403
0.000508804
0.000555644
326.989
0.000282928
0.000266757
39.7591
1504.25
3.65314e+06
1.07193e+07
53652.9
4.21221
0.000587772
0.000350123
0.123539
0
0
0
0.0205704
3.64503e+09
5.08974e+07
5640.86
57800.2
25.4666
6.41218e+06
1.81391e+08
2.2952e+09
4.99361e+08
2.46882e+09
2.45219e+11
5.65905e+10
1.49381e+08
4.28788e+06
239956
280185
32834.7
210119
4107.47
3.20783e+08
8.27102e+10
2.06541e+13
1.27982e+11
6.14406e+09
1.39228e+09
1.68056e+09
7.08282e+08
1.92658e+09
3.05255e+08
3.5109e+10
6.03449e+11
)
;

boundaryField
{
    fuel
    {
        type            calculated;
        value           nonuniform 0();
    }
    wall
    {
        type            calculated;
        value           nonuniform 0();
    }
    outlet
    {
        type            calculated;
        value           nonuniform List<scalar> 
25
(
0
0
0
0
0
0
0
0
0.00166906
0.210405
5.08978e+07
1310.46
254818
2.10674e-05
0.0429544
0.00087799
1.03456e+18
5.77368e+18
2.92604e+20
2.72759e-43
1.22721e+13
8.32016e+06
3.64498e+09
8.27087e+10
6.03435e+11
)
;
    }
    frontAndBack
    {
        type            empty;
    }
    procBoundary0to1
    {
        type            processor;
        value           nonuniform List<scalar> 
21
(
1.40403e+10
1.00228e+09
1.37076e+09
9.78199e+08
2.22887e+10
4.20381e+11
4.5158e+12
4.09668e+11
2.97237e+12
9.48708e+13
9.48708e+13
1.07047e+14
7.78701e+11
9.95047e+10
4.63132e+10
5.75236e+10
3.18617e+10
6.7945e+10
1.89974e+10
4.22788e+11
2.07474e+12
)
;
    }
    procBoundary0to2
    {
        type            processor;
        value           uniform 0;
    }
    procBoundary0to3
    {
        type            processor;
        value           nonuniform List<scalar> 10(0 0 0 0 0 0 0 0 0 39.3145);
    }
}

diagonal:  Solving for moment.2.populationBalance, Initial residual = 0, Final residual = 0, No Iterations 0
aggregationSource : dimensions      [0 6 -1 0 0 0 0];

internalField   nonuniform List<scalar> 
250
(
0
0
0
0
0
0
0
0
0
1125.13
0
0
0
0
0
0
0
0
0
186334
0
0
0
0
0
0
0
0
0
0
0
0
0
0
0
0
0
0
0
3.37127e-05
0
0
0
0
0
0
0
0
0
0
0
0
0
0
0
0
0
0
0
0.00634509
0
0
0
0
0
0
0
0
0
0
0
0
0
0
0
0
0
0
0
0.000312209
0
0
0
0
0
0
0
0
0
0
0
0
0
0
0
0
0
0
0
3.36508e+17
0
0
0
0
0
0
0
0
0
0
0
0
0
0
0
0
0
0
0
2.24386e+18
0
0
0
0
0
0
0
0
0
0
0
0
0
0
0
0
0
0
0
1.71317e+20
0
0
0
0
0
0
0
0
0
0
0
0
0
0
0
0
0
0
0
3.0398e-43
0
0
0
0
0
0
0
0
0
0
0
0
0
0
0
0
0
0
0
7.62578e+12
0.00016998
0
0
0
0
0
0
0
0
0
0
0
0
0
0
0
0
0
9.00499e-05
6.86636e+08
0.53015
5.21285e-05
0.000103016
58.1399
4.09434e-05
4.87154e-05
19.7349
986.334
1.95429e+06
7.41543e+06
35679.3
2.44616
0.00016011
7.37279e-05
0.0732348
0
0
0
0.0634713
5.99954e+12
2.36675e+11
961770
1.58209e+07
167.764
1.40122e+09
4.42029e+10
5.72251e+11
2.44974e+11
7.84943e+11
1.10857e+14
2.56557e+13
5.12182e+10
2.1868e+09
1.07625e+08
1.51835e+08
1.03344e+07
8.94139e+07
1.18905e+06
3.69111e+12
7.27426e+14
3.72205e+17
2.10416e+15
1.68005e+14
4.36329e+13
5.81707e+13
1.99876e+13
6.40085e+13
6.72088e+12
2.57418e+15
1.93187e+16
)
;

boundaryField
{
    fuel
    {
        type            calculated;
        value           nonuniform 0();
    }
    wall
    {
        type            calculated;
        value           nonuniform 0();
    }
    outlet
    {
        type            calculated;
        value           nonuniform List<scalar> 
25
(
0
0
0
0
0
0
0
0
0.000169982
0.530153
2.36677e+11
1125.08
186329
3.37122e-05
0.00634511
0.00031221
3.36508e+17
2.24386e+18
1.71316e+20
3.03979e-43
7.62572e+12
6.86631e+08
5.99946e+12
7.27414e+14
1.93183e+16
)
;
    }
    frontAndBack
    {
        type            empty;
    }
    procBoundary0to1
    {
        type            processor;
        value           nonuniform List<scalar> 
21
(
6.13693e+14
2.04007e+13
3.86067e+13
1.90209e+13
3.89211e+14
6.38276e+15
6.76021e+16
7.58378e+15
4.91235e+16
1.3564e+18
1.3564e+18
5.60391e+18
5.33676e+16
1.21459e+16
6.0659e+15
8.02331e+15
3.88695e+15
9.38203e+15
1.90466e+15
8.35907e+16
1.91456e+17
)
;
    }
    procBoundary0to2
    {
        type            processor;
        value           uniform 0;
    }
    procBoundary0to3
    {
        type            processor;
        value           nonuniform List<scalar> 10(0 0 0 0 0 0 0 0 0 35.1314);
    }
}

diagonal:  Solving for moment.3.populationBalance, Initial residual = 0, Final residual = 0, No Iterations 0
aggregationSource : dimensions      [0 9 -1 0 0 0 0];

internalField   nonuniform List<scalar> 
250
(
0
0
0
0
0
0
0
0
0
751.308
0
0
0
0
0
0
0
0
0
105974
0
0
0
0
0
0
0
0
0
0
0
0
0
0
0
0
0
0
0
4.19591e-05
0
0
0
0
0
0
0
0
0
0
0
0
0
0
0
0
0
0
0
0.000753362
0
0
0
0
0
0
0
0
0
0
0
0
0
0
0
0
0
0
0
8.63494e-05
0
0
0
0
0
0
0
0
0
0
0
0
0
0
0
0
0
0
0
8.51317e+16
0
0
0
0
0
0
0
0
0
0
0
0
0
0
0
0
0
0
0
6.78256e+17
0
0
0
0
0
0
0
0
0
0
0
0
0
0
0
0
0
0
0
7.80142e+19
0
0
0
0
0
0
0
0
0
0
0
0
0
0
0
0
0
0
0
2.6349e-43
0
0
0
0
0
0
0
0
0
0
0
0
0
0
0
0
0
0
0
3.68554e+12
1.34643e-05
0
0
0
0
0
0
0
0
0
0
0
0
0
0
0
0
0
7.9077e-06
6.48475e+10
1.03896
4.1539e-06
1.48548e-05
8.04091
4.94287e-06
6.92014e-06
7.61882
503.017
813145
3.98989e+06
18454.2
1.1059
3.39414e-05
1.20754e-05
0.0337665
0
0
0
0.152396
1.34402e+16
1.28853e+15
1.97246e+08
4.59566e+09
859.577
2.57752e+11
8.65459e+12
1.16341e+14
1.04048e+14
2.12506e+14
4.41458e+16
1.05404e+16
1.62394e+13
1.16104e+12
5.07739e+10
8.51084e+10
3.85599e+09
3.92351e+10
3.7839e+08
4.36752e+16
8.80749e+18
6.09992e+21
3.72941e+19
5.11013e+18
1.43405e+18
2.06031e+18
5.96876e+17
2.15975e+18
1.70892e+17
1.9154e+20
8.71398e+20
)
;

boundaryField
{
    fuel
    {
        type            calculated;
        value           nonuniform 0();
    }
    wall
    {
        type            calculated;
        value           nonuniform 0();
    }
    outlet
    {
        type            calculated;
        value           nonuniform List<scalar> 
25
(
0
0
0
0
0
0
0
0
1.34644e-05
1.03897
1.28854e+15
751.281
105971
4.19585e-05
0.000753364
8.63496e-05
8.51317e+16
6.78256e+17
7.8014e+19
2.63489e-43
3.68551e+12
6.48471e+10
1.34401e+16
8.80734e+18
8.71379e+20
)
;
    }
    frontAndBack
    {
        type            empty;
    }
    procBoundary0to1
    {
        type            processor;
        value           nonuniform List<scalar> 
21
(
2.96336e+19
4.64362e+17
1.13558e+18
3.91093e+17
7.3777e+18
9.1432e+19
8.90298e+20
1.37233e+20
7.48826e+20
1.84401e+22
1.84401e+22
2.89089e+23
4.42237e+21
1.56437e+21
8.01217e+20
1.10854e+21
4.82872e+20
1.27728e+21
2.0699e+20
1.61408e+22
2.34257e+22
)
;
    }
    procBoundary0to2
    {
        type            processor;
        value           uniform 0;
    }
    procBoundary0to3
    {
        type            processor;
        value           nonuniform List<scalar> 10(0 0 0 0 0 0 0 0 0 24.4171);
    }
}

diagonal:  Solving for moment.4.populationBalance, Initial residual = 0, Final residual = 0, No Iterations 0
ExecutionTime = 31.02 s  ClockTime = 31 s

Courant Number mean: 0.0912112 max: 0.496768
deltaT = 2.38095e-05
Time = 0.00116666666667

PIMPLE: iteration 1
aggregationSource : dimensions      [0 -3 -1 0 0 0 0];

internalField   nonuniform List<scalar> 
250
(
0
0
0
0
0
0
0
0
0
0
0
0
0
0
0
0
0
0
0
-8.29755e-05
0
0
0
0
0
0
0
0
0
0
0
0
0
0
0
0
0
0
0
0
0
0
0
0
0
0
0
0
0
0
0
0
0
0
0
0
0
0
0
-1650.9
0
0
0
0
0
0
0
0
0
0
0
0
0
0
0
0
0
0
0
-4.54118
0
0
0
0
0
0
0
0
0
0
0
0
0
0
0
0
0
0
0
0
0
0
0
0
0
0
0
0
0
0
0
0
0
0
0
0
0
0
0
-3.70633e+22
0
0
0
0
0
0
0
0
0
0
0
0
0
0
0
0
0
0
0
-1.71923e+23
0
0
0
0
0
0
0
0
0
0
0
0
0
0
0
0
0
0
0
-1.03889e+20
0
0
0
0
0
0
0
0
0
0
0
0
0
0
0
0
0
0
0
0
-0.724135
0
0
0
0
0
0
0
0
0
0
0
0
0
0
0
0
0
-0.281553
-3.03205e+12
-0.200525
0
0
-1.51236e+06
-91919.3
-11.3777
-174257
-1.21762e+06
-3355.45
-9.01261e+07
-489120
-2297.42
-9.59062
0
-0.00249059
-0.0424854
-0.0441716
-0.0789629
-0.00538463
-52373.9
-116.042
-50.7448
-27.496
-157.65
-8448.25
-46038.3
-1.40633e+06
-80025.3
-4.66897e+06
-2.06184e+08
-6.09156e+06
-30195.1
-278.428
-32.7922
-27.2544
-17.7846
-31.9813
-16.8138
-74.3887
-41363.6
-4.51455e+06
-12947
-223.57
-42.8261
-40.1457
-30.8121
-47.9334
-36.5075
-159.963
-20008.9
)
;

boundaryField
{
    fuel
    {
        type            calculated;
        value           nonuniform 0();
    }
    wall
    {
        type            calculated;
        value           nonuniform 0();
    }
    outlet
    {
        type            calculated;
        value           nonuniform List<scalar> 
25
(
0
0
0
0
0
0
0
0
-0.724141
-0.200526
-116.043
0
-8.29735e-05
0
-1650.91
-4.54119
0
-3.70633e+22
-1.71922e+23
-1.03888e+20
0
-3.03201e+12
-52373.2
-41362.9
-20008.5
)
;
    }
    frontAndBack
    {
        type            empty;
    }
    procBoundary0to1
    {
        type            processor;
        value           nonuniform List<scalar> 
21
(
-251.732
-107.955
-51.231
-50.1157
-1345.14
-593906
-1.30721e+07
-37003.1
-1.44764e+06
-6.12611e+07
-6.12611e+07
-970013
-3560.05
-158.551
-60.2369
-61.4386
-51.098
-72.1945
-62.7438
-204.862
-7639.74
)
;
    }
    procBoundary0to2
    {
        type            processor;
        value           uniform 0;
    }
    procBoundary0to3
    {
        type            processor;
        value           nonuniform List<scalar> 10(0 0 0 0 0 0 0 0 0 -0.000134875);
    }
}

diagonal:  Solving for moment.0.populationBalance, Initial residual = 0, Final residual = 0, No Iterations 0
aggregationSource : dimensions      [0 0 -1 0 0 0 0];

internalField   nonuniform List<scalar> 
250
(
0
0
0
0
0
0
0
0
0
0
0
0
0
0
0
0
0
0
0
0
0
0
0
0
0
0
0
0
0
0
0
0
0
0
0
0
0
0
0
0
0
0
0
0
0
0
0
0
0
0
0
0
0
0
0
0
0
0
0
0
0
0
0
0
0
0
0
0
0
0
0
0
0
0
0
0
0
0
0
0
0
0
0
0
0
0
0
0
0
0
0
0
0
0
0
0
0
0
0
0
0
0
0
0
0
0
0
0
0
0
0
0
0
0
0
0
0
0
0
1.28093e-08
0
0
0
0
0
0
0
0
0
0
0
0
0
0
0
0
0
0
0
0
0
0
0
0
0
0
0
0
0
0
0
0
0
0
0
0
0
0
0
-1.98693e-07
0
0
0
0
0
0
0
0
0
0
0
0
0
0
0
0
0
0
0
0
0
0
0
0
0
0
0
0
0
0
0
0
0
0
0
0
0
0
0
1.458e-05
0
0
0
0
0
7.91758e-31
0
0
0
1.08504e-14
0
0
0
0
0
0
0
0
-1.93392e-22
-4.96855e-10
2.93392e-13
-4.2683e-15
9.31356e-15
1.27034e-20
-4.1328e-12
9.78034e-11
-5.04354e-10
2.84661e-10
-7.49058e-09
-2.78876e-07
-6.11416e-09
-1.62978e-11
-2.71392e-13
2.87034e-14
-4.5475e-14
1.41359e-14
8.414e-14
-2.94476e-15
-3.16196e-12
-1.15189e-09
3.03259e-08
-4.64211e-10
-1.48554e-11
-8.9858e-13
-8.81056e-13
-3.4174e-13
3.6911e-13
4.92192e-12
1.13634e-11
9.86666e-10
)
;

boundaryField
{
    fuel
    {
        type            calculated;
        value           nonuniform 0();
    }
    wall
    {
        type            calculated;
        value           nonuniform 0();
    }
    outlet
    {
        type            calculated;
        value           nonuniform List<scalar> 
25
(
0
0
0
0
0
0
0
0
0
0
2.93396e-13
0
0
0
0
0
0
1.28093e-08
0
-1.98692e-07
0
1.45798e-05
-4.96849e-10
-1.15187e-09
9.86643e-10
)
;
    }
    frontAndBack
    {
        type            empty;
    }
    procBoundary0to1
    {
        type            processor;
        value           nonuniform List<scalar> 
21
(
2.8169e-12
1.38891e-11
-1.29237e-12
-3.79201e-13
-7.88105e-11
1.33659e-08
-8.59944e-07
-2.22582e-09
-7.65332e-08
-1.0103e-06
-1.0103e-06
2.11503e-07
5.75505e-10
1.63919e-11
-7.27611e-12
1.27495e-12
-9.31856e-12
3.42755e-11
-1.21668e-11
-2.83916e-10
-4.82553e-10
)
;
    }
    procBoundary0to2
    {
        type            processor;
        value           uniform 0;
    }
    procBoundary0to3
    {
        type            processor;
        value           uniform 0;
    }
}

diagonal:  Solving for moment.1.populationBalance, Initial residual = 0, Final residual = 0, No Iterations 0
aggregationSource : dimensions      [0 3 -1 0 0 0 0];

internalField   nonuniform List<scalar> 
250
(
0
0
0
0
0
0
0
0
0
0
0
0
0
0
0
0
0
0
0
9.85912e-06
0
0
0
0
0
0
0
0
0
0
0
0
0
0
0
0
0
0
0
0
0
0
0
0
0
0
0
0
0
0
0
0
0
0
0
0
0
0
0
71.5934
0
0
0
0
0
0
0
0
0
0
0
0
0
0
0
0
0
0
0
0.127606
0
0
0
0
0
0
0
0
0
0
0
0
0
0
0
0
0
0
0
0
0
0
0
0
0
0
0
0
0
0
0
0
0
0
0
0
0
0
0
1.24399e+21
0
0
0
0
0
0
0
0
0
0
0
0
0
0
0
0
0
0
0
1.30965e+22
0
0
0
0
0
0
0
0
0
0
0
0
0
0
0
0
0
0
0
5.98077e+16
0
0
0
0
0
0
0
0
0
0
0
0
0
0
0
0
0
0
0
0
0.00166904
0
0
0
0
0
0
0
0
0
0
0
0
0
0
0
0
0
0.000797575
7.89939e+11
0.282909
0
0
10624.8
4222.98
0.611649
9540.56
116334
213.395
6711.08
21.059
172.117
0.913944
0
0.000194498
0.000160302
0.000459372
6.56994e-05
0.0113937
3.67012e+09
5.39974e+07
6071.69
61588.9
1520.34
7.45029e+06
1.98709e+08
2.37635e+09
5.52227e+08
2.83491e+09
2.84003e+11
6.22383e+10
1.66473e+08
4.83119e+06
265623
305905
35693.9
227085
4526.1
3.51977e+08
9.13e+10
2.38655e+13
1.5211e+11
7.2406e+09
1.57194e+09
1.88253e+09
7.86593e+08
2.15524e+09
3.37109e+08
3.92864e+10
7.0042e+11
)
;

boundaryField
{
    fuel
    {
        type            calculated;
        value           nonuniform 0();
    }
    wall
    {
        type            calculated;
        value           nonuniform 0();
    }
    outlet
    {
        type            calculated;
        value           nonuniform List<scalar> 
25
(
0
0
0
0
0
0
0
0
0.00166906
0.282911
5.39978e+07
0
9.85888e-06
0
71.5936
0.127606
0
1.24399e+21
1.30965e+22
5.98074e+16
0
7.8993e+11
3.67007e+09
9.12985e+10
7.00404e+11
)
;
    }
    frontAndBack
    {
        type            empty;
    }
    procBoundary0to1
    {
        type            processor;
        value           nonuniform List<scalar> 
21
(
1.52874e+10
1.10328e+09
1.53155e+09
1.18892e+09
2.77092e+10
4.9906e+11
5.05497e+12
4.78789e+11
3.43271e+12
1.12512e+14
1.12512e+14
1.32826e+14
9.69956e+11
1.176e+11
5.28163e+10
6.54805e+10
3.5972e+10
7.73187e+10
2.12512e+10
4.80401e+11
2.46478e+12
)
;
    }
    procBoundary0to2
    {
        type            processor;
        value           uniform 0;
    }
    procBoundary0to3
    {
        type            processor;
        value           nonuniform List<scalar> 10(0 0 0 0 0 0 0 0 0 2.39333e-05);
    }
}

diagonal:  Solving for moment.2.populationBalance, Initial residual = 0, Final residual = 0, No Iterations 0
aggregationSource : dimensions      [0 6 -1 0 0 0 0];

internalField   nonuniform List<scalar> 
250
(
0
0
0
0
0
0
0
0
0
0
0
0
0
0
0
0
0
0
0
7.20923e-06
0
0
0
0
0
0
0
0
0
0
0
0
0
0
0
0
0
0
0
0
0
0
0
0
0
0
0
0
0
0
0
0
0
0
0
0
0
0
0
31.6268
0
0
0
0
0
0
0
0
0
0
0
0
0
0
0
0
0
0
0
0.0453763
0
0
0
0
0
0
0
0
0
0
0
0
0
0
0
0
0
0
0
0
0
0
0
0
0
0
0
0
0
0
0
0
0
0
0
0
0
0
0
4.83459e+20
0
0
0
0
0
0
0
0
0
0
0
0
0
0
0
0
0
0
0
7.66787e+21
0
0
0
0
0
0
0
0
0
0
0
0
0
0
0
0
0
0
0
3.04409e+15
0
0
0
0
0
0
0
0
0
0
0
0
0
0
0
0
0
0
0
0
0.00016998
0
0
0
0
0
0
0
0
0
0
0
0
0
0
0
0
0
9.00499e-05
1.51492e+12
0.712842
0
0
1889.12
1920.13
0.300838
4735.56
76279.7
114.158
123.401
0.321631
99.936
0.598498
0
0.000115299
2.2292e-05
9.93761e-05
4.0201e-06
0.0351948
6.44767e+12
2.62296e+11
1.0872e+06
1.75211e+07
10015.4
1.75385e+09
5.25456e+10
6.43881e+11
2.88933e+11
9.4716e+11
1.35833e+14
3.02413e+13
6.12947e+10
2.60607e+09
1.25068e+08
1.73191e+08
1.1819e+07
1.00977e+08
1.37705e+06
4.26641e+12
8.47748e+14
4.68421e+17
2.69196e+15
2.08114e+14
5.18652e+13
6.87255e+13
2.34252e+13
7.55459e+13
7.86202e+12
3.03873e+15
2.34009e+16
)
;

boundaryField
{
    fuel
    {
        type            calculated;
        value           nonuniform 0();
    }
    wall
    {
        type            calculated;
        value           nonuniform 0();
    }
    outlet
    {
        type            calculated;
        value           nonuniform List<scalar> 
25
(
0
0
0
0
0
0
0
0
0.000169982
0.712846
2.62297e+11
0
7.20905e-06
0
31.6269
0.0453764
0
4.83459e+20
7.66785e+21
3.04407e+15
0
1.5149e+12
6.44758e+12
8.47733e+14
2.34004e+16
)
;
    }
    frontAndBack
    {
        type            empty;
    }
    procBoundary0to1
    {
        type            processor;
        value           nonuniform List<scalar> 
21
(
7.00605e+14
2.36922e+13
4.53577e+13
2.43468e+13
5.16104e+14
8.31522e+15
8.3576e+16
9.61959e+15
6.16974e+16
1.75521e+18
1.75521e+18
7.5619e+18
7.00941e+16
1.50295e+16
7.29082e+15
9.64125e+15
4.63229e+15
1.12724e+16
2.25247e+15
1.0027e+17
2.35652e+17
)
;
    }
    procBoundary0to2
    {
        type            processor;
        value           uniform 0;
    }
    procBoundary0to3
    {
        type            processor;
        value           nonuniform List<scalar> 10(0 0 0 0 0 0 0 0 0 2.13868e-05);
    }
}

diagonal:  Solving for moment.3.populationBalance, Initial residual = 0, Final residual = 0, No Iterations 0
aggregationSource : dimensions      [0 9 -1 0 0 0 0];

internalField   nonuniform List<scalar> 
250
(
0
0
0
0
0
0
0
0
0
0
0
0
0
0
0
0
0
0
0
4.1001e-06
0
0
0
0
0
0
0
0
0
0
0
0
0
0
0
0
0
0
0
0
0
0
0
0
0
0
0
0
0
0
0
0
0
0
0
0
0
0
0
10.8666
0
0
0
0
0
0
0
0
0
0
0
0
0
0
0
0
0
0
0
0.01255
0
0
0
0
0
0
0
0
0
0
0
0
0
0
0
0
0
0
0
0
0
0
0
0
0
0
0
0
0
0
0
0
0
0
0
0
0
0
0
1.46136e+20
0
0
0
0
0
0
0
0
0
0
0
0
0
0
0
0
0
0
0
3.49179e+21
0
0
0
0
0
0
0
0
0
0
0
0
0
0
0
0
0
0
0
1.20507e+14
0
0
0
0
0
0
0
0
0
0
0
0
0
0
0
0
0
0
0
0
1.34643e-05
0
0
0
0
0
0
0
0
0
0
0
0
0
0
0
0
0
7.9077e-06
6.21114e+13
1.39699
0
0
261.248
679.046
0.115085
1828.2
38901.7
47.4992
1.83688
0.00733066
45.131
0.304832
0
5.31612e-05
2.41135e-06
1.67207e-05
1.91323e-07
0.084789
1.52971e+16
1.50087e+15
2.3428e+08
5.3198e+09
51316.4
3.46387e+11
1.11506e+13
1.42265e+14
1.31635e+14
2.74109e+14
5.79714e+16
1.33717e+16
2.09017e+13
1.4546e+12
6.20124e+10
1.01849e+11
4.6556e+09
4.64949e+10
4.61298e+08
5.33346e+16
1.07497e+19
8.36088e+21
5.08579e+19
6.64727e+18
1.79952e+18
2.57379e+18
7.4047e+17
2.69581e+18
2.12361e+17
2.39127e+20
1.09765e+21
)
;

boundaryField
{
    fuel
    {
        type            calculated;
        value           nonuniform 0();
    }
    wall
    {
        type            calculated;
        value           nonuniform 0();
    }
    outlet
    {
        type            calculated;
        value           nonuniform List<scalar> 
25
(
0
0
0
0
0
0
0
0
1.34644e-05
1.397
1.50088e+15
0
4.1e-06
0
10.8666
0.01255
0
1.46136e+20
3.49178e+21
1.20507e+14
0
6.21108e+13
1.52969e+16
1.07495e+19
1.09762e+21
)
;
    }
    frontAndBack
    {
        type            empty;
    }
    procBoundary0to1
    {
        type            processor;
        value           nonuniform List<scalar> 
21
(
3.56295e+19
5.71025e+17
1.40674e+18
5.24958e+17
1.02767e+19
1.28873e+20
1.20659e+21
1.87305e+20
1.02052e+21
2.60089e+22
2.60089e+22
4.20456e+23
6.06631e+21
2.03475e+21
1.01771e+21
1.40919e+21
6.08938e+20
1.62361e+21
2.59546e+20
2.04795e+22
2.99817e+22
)
;
    }
    procBoundary0to2
    {
        type            processor;
        value           uniform 0;
    }
    procBoundary0to3
    {
        type            processor;
        value           nonuniform List<scalar> 10(0 0 0 0 0 0 0 0 0 1.48643e-05);
    }
}

diagonal:  Solving for moment.4.populationBalance, Initial residual = 0, Final residual = 0, No Iterations 0
ExecutionTime = 36.16 s  ClockTime = 36 s

Courant Number mean: 0.0912112 max: 0.496768
deltaT = 2.38095e-05
Time = 0.00119047619048

PIMPLE: iteration 1
aggregationSource : dimensions      [0 -3 -1 0 0 0 0];

internalField   nonuniform List<scalar> 
250
(
0
0
0
0
0
0
0
0
0
-11.2615
0
0
0
0
0
0
0
0
0
-10.0091
0
0
0
0
0
0
0
0
0
0
0
0
0
0
0
0
0
0
0
-8.5307
0
0
0
0
0
0
0
0
0
0
0
0
0
0
0
0
0
0
0
-1154.24
0
0
0
0
0
0
0
0
0
0
0
0
0
0
0
0
0
0
0
-102783
0
0
0
0
0
0
0
0
0
0
0
0
0
0
0
0
0
0
0
-4.55154
0
0
0
0
0
0
0
0
0
0
0
0
0
0
0
0
0
0
0
-4.77466e+20
0
0
0
0
0
0
0
0
0
0
0
0
0
0
0
0
0
0
0
-2.39599e+24
0
0
0
0
0
0
0
0
0
0
0
0
0
0
0
0
0
0
0
0
0
0
0
0
0
0
0
0
0
0
0
0
0
0
0
0
0
0
0
0
-0.724135
0
0
0
0
0
0
0
0
0
0
0
0
0
0
0
0
0
-0.281553
-2.11124e+12
-0.148207
-0.218128
-0.0727435
-4.94772e+07
0
-1.04952e-25
-4.84082e+07
0
-619.606
-1.00624e+08
-8.70296e+06
-83331.9
-0.00290867
-0.0424487
-0.0557301
-2.04838e-09
0
0
-0.00972867
-6.55889e+10
-115.562
-50.8537
-30.2222
-8493.06
-13382.1
-47146.7
-1.39678e+06
-142182
-4.27638e+06
-1.95691e+08
-5.63862e+06
-28629.9
-284.012
-32.8313
-27.2116
-18.0356
-32.3092
-17.1097
-74.7635
-38404.5
-4.02602e+06
-13272.5
-236.104
-43.9959
-40.9337
-31.2152
-48.7784
-36.7424
-162.804
-20893
)
;

boundaryField
{
    fuel
    {
        type            calculated;
        value           nonuniform 0();
    }
    wall
    {
        type            calculated;
        value           nonuniform 0();
    }
    outlet
    {
        type            calculated;
        value           nonuniform List<scalar> 
25
(
0
0
0
0
0
0
0
0
-0.724141
-0.148208
-115.563
-11.2611
-10.0088
-8.53058
-1154.24
-102783
-4.55154
-4.77466e+20
-2.39598e+24
0
0
-2.11121e+12
-6.55878e+10
-38403.8
-20892.5
)
;
    }
    frontAndBack
    {
        type            empty;
    }
    procBoundary0to1
    {
        type            processor;
        value           nonuniform List<scalar> 
21
(
-253.83
-108.81
-52.1801
-63.9383
-1523.91
-720360
-1.40637e+07
-37365.8
-1.29721e+06
-5.51792e+07
-5.51792e+07
-989058
-3911.25
-170.485
-62.3654
-63.3002
-52.3428
-74.3159
-63.82
-210.609
-8397.04
)
;
    }
    procBoundary0to2
    {
        type            processor;
        value           uniform 0;
    }
    procBoundary0to3
    {
        type            processor;
        value           uniform 0;
    }
}

diagonal:  Solving for moment.0.populationBalance, Initial residual = 0, Final residual = 0, No Iterations 0
aggregationSource : dimensions      [0 0 -1 0 0 0 0];

internalField   nonuniform List<scalar> 
250
(
0
0
0
0
0
0
0
0
0
0
0
0
0
0
0
0
0
0
0
0
0
0
0
0
0
0
0
0
0
0
0
0
0
0
0
0
0
0
0
0
0
0
0
0
0
0
0
0
0
0
0
0
0
0
0
0
0
0
0
-7.21122e-17
0
0
0
0
0
0
0
0
0
0
0
0
0
0
0
0
0
0
0
0
0
0
0
0
0
0
0
0
0
0
0
0
0
0
0
0
0
0
0
0
0
0
0
0
0
0
0
0
0
0
0
0
0
0
0
0
0
0
0
0
0
0
0
0
0
0
0
0
0
0
0
0
0
0
0
0
0
0
0
0
0
0
0
0
0
0
0
0
0
0
0
0
0
0
0
0
0
0
0
0
0
0
0
0
0
0
0
0
0
0
0
0
0
0
0
0
0
0
0
0
0
0
0
0
0
0
0
0
0
0
0
0
0
0
0
0
0
0
0
9.60024e-05
0
0
0
0
0
0
0
0
-8.68852e-22
0
0
-1.18702e-22
0
0
0
0
0
0
-3.00939e-23
-4.16387e-06
-7.51705e-13
-1.64489e-14
1.49209e-14
-5.52843e-18
8.71201e-12
1.61002e-11
1.22179e-09
5.16385e-10
3.41574e-09
-2.70132e-07
1.99369e-08
6.45114e-11
-8.66687e-13
3.85918e-14
-1.0606e-14
-2.16202e-14
-9.31265e-14
4.8538e-15
-3.8376e-12
5.51203e-10
-2.30628e-07
7.02796e-10
-9.67572e-12
-4.36634e-12
1.02723e-12
-3.07846e-12
5.13962e-12
-1.08674e-12
5.09453e-12
1.90472e-09
)
;

boundaryField
{
    fuel
    {
        type            calculated;
        value           nonuniform 0();
    }
    wall
    {
        type            calculated;
        value           nonuniform 0();
    }
    outlet
    {
        type            calculated;
        value           nonuniform List<scalar> 
25
(
0
0
0
0
0
0
0
0
0
0
-7.5171e-13
0
0
0
-7.21123e-17
0
0
0
0
0
0
9.60013e-05
-4.1638e-06
5.51194e-10
1.90468e-09
)
;
    }
    frontAndBack
    {
        type            empty;
    }
    procBoundary0to1
    {
        type            processor;
        value           nonuniform List<scalar> 
21
(
5.53425e-11
-2.53581e-12
-7.19671e-13
4.60558e-12
-1.57767e-10
1.51495e-08
-1.47915e-06
3.41714e-09
-1.11718e-07
3.01378e-06
3.01378e-06
5.06676e-07
-4.05861e-10
1.03387e-11
1.02872e-11
-4.78835e-12
-3.08644e-11
3.23309e-11
5.46978e-13
-9.76375e-12
2.32367e-09
)
;
    }
    procBoundary0to2
    {
        type            processor;
        value           uniform 0;
    }
    procBoundary0to3
    {
        type            processor;
        value           uniform 0;
    }
}

diagonal:  Solving for moment.1.populationBalance, Initial residual = 0, Final residual = 0, No Iterations 0
aggregationSource : dimensions      [0 3 -1 0 0 0 0];

internalField   nonuniform List<scalar> 
250
(
0
0
0
0
0
0
0
0
0
0.384919
0
0
0
0
0
0
0
0
0
0.222322
0
0
0
0
0
0
0
0
0
0
0
0
0
0
0
0
0
0
0
0.0994689
0
0
0
0
0
0
0
0
0
0
0
0
0
0
0
0
0
0
0
0.0383198
0
0
0
0
0
0
0
0
0
0
0
0
0
0
0
0
0
0
0
2888.18
0
0
0
0
0
0
0
0
0
0
0
0
0
0
0
0
0
0
0
0.00987515
0
0
0
0
0
0
0
0
0
0
0
0
0
0
0
0
0
0
0
7.84818e+14
0
0
0
0
0
0
0
0
0
0
0
0
0
0
0
0
0
0
0
1.82519e+23
0
0
0
0
0
0
0
0
0
0
0
0
0
0
0
0
0
0
0
0
0
0
0
0
0
0
0
0
0
0
0
0
0
0
0
0
0
0
0
0
0.00166904
0
0
0
0
0
0
0
0
0
0
0
0
0
0
0
0
0
0.000797575
1.39469e+12
0.209097
0.000508804
0.000555644
347592
0
5.64209e-27
2.65034e+06
0
410.352
1.0701e+07
855264
6243.02
0.000277183
0.000351853
0.000454633
7.57187e-11
0
0
0.0205756
8.46393e+11
5.71706e+07
6512.39
66580.8
81905
8.80249e+06
2.16162e+08
2.44889e+09
6.43556e+08
3.17158e+09
3.28392e+11
6.80304e+10
1.85234e+08
5.4408e+06
293021
331051
38764.6
245022
4985.86
3.85123e+08
9.97454e+10
2.74809e+13
1.79578e+11
8.49912e+09
1.76995e+09
2.10232e+09
8.70904e+08
2.40321e+09
3.71262e+08
4.3816e+10
8.063e+11
)
;

boundaryField
{
    fuel
    {
        type            calculated;
        value           nonuniform 0();
    }
    wall
    {
        type            calculated;
        value           nonuniform 0();
    }
    outlet
    {
        type            calculated;
        value           nonuniform List<scalar> 
25
(
0
0
0
0
0
0
0
0
0.00166906
0.209098
5.7171e+07
0.384905
0.222316
0.0994675
0.0383199
2888.18
0.00987515
7.84818e+14
1.82519e+23
0
0
1.39467e+12
8.46379e+11
9.97437e+10
8.06282e+11
)
;
    }
    frontAndBack
    {
        type            empty;
    }
    procBoundary0to1
    {
        type            processor;
        value           nonuniform List<scalar> 
21
(
1.65954e+10
1.21118e+09
1.70789e+09
1.4577e+09
3.42182e+10
5.86925e+11
5.61705e+12
5.56161e+11
3.96318e+12
1.32729e+14
1.32729e+14
1.63554e+14
1.20072e+12
1.38625e+11
6.00527e+10
7.42865e+10
4.04778e+10
8.76806e+10
2.37001e+10
5.43956e+11
2.91167e+12
)
;
    }
    procBoundary0to2
    {
        type            processor;
        value           uniform 0;
    }
    procBoundary0to3
    {
        type            processor;
        value           uniform 0;
    }
}

diagonal:  Solving for moment.2.populationBalance, Initial residual = 0, Final residual = 0, No Iterations 0
aggregationSource : dimensions      [0 6 -1 0 0 0 0];

internalField   nonuniform List<scalar> 
250
(
0
0
0
0
0
0
0
0
0
0.151045
0
0
0
0
0
0
0
0
0
0.0704168
0
0
0
0
0
0
0
0
0
0
0
0
0
0
0
0
0
0
0
0.0227989
0
0
0
0
0
0
0
0
0
0
0
0
0
0
0
0
0
0
0
0.0059916
0
0
0
0
0
0
0
0
0
0
0
0
0
0
0
0
0
0
0
1027.03
0
0
0
0
0
0
0
0
0
0
0
0
0
0
0
0
0
0
0
0.000975759
0
0
0
0
0
0
0
0
0
0
0
0
0
0
0
0
0
0
0
2.13446e+12
0
0
0
0
0
0
0
0
0
0
0
0
0
0
0
0
0
0
0
1.06863e+23
0
0
0
0
0
0
0
0
0
0
0
0
0
0
0
0
0
0
0
0
0
0
0
0
0
0
0
0
0
0
0
0
0
0
0
0
0
0
0
0
0.00016998
0
0
0
0
0
0
0
0
0
0
0
0
0
0
0
0
0
9.00499e-05
3.34274e+12
0.526858
5.21285e-05
0.000103016
61802.8
0
2.77505e-27
1.31552e+06
0
708.409
7.40279e+06
568752
3624.87
0.000181514
7.39147e-05
0.000107485
3.0882e-11
0
0
0.0634871
1.02482e+15
2.89716e+11
1.22317e+06
1.95911e+07
539565
2.20422e+09
6.19034e+10
7.19472e+11
3.50577e+11
1.12275e+12
1.65824e+14
3.53863e+13
7.30265e+10
3.09966e+09
1.44805e+08
1.95938e+08
1.34885e+07
1.13728e+08
1.59221e+06
4.91141e+12
9.78535e+14
5.85191e+17
3.417e+15
2.56668e+14
6.14119e+13
8.08454e+13
2.7337e+13
8.87643e+13
9.15998e+12
3.57084e+15
2.81264e+16
)
;

boundaryField
{
    fuel
    {
        type            calculated;
        value           nonuniform 0();
    }
    wall
    {
        type            calculated;
        value           nonuniform 0();
    }
    outlet
    {
        type            calculated;
        value           nonuniform List<scalar> 
25
(
0
0
0
0
0
0
0
0
0.000169982
0.526861
2.89717e+11
0.151039
0.0704151
0.0227986
0.00599162
1027.03
0.000975759
2.13446e+12
1.06863e+23
0
0
3.3427e+12
1.0248e+15
9.78518e+14
2.81258e+16
)
;
    }
    frontAndBack
    {
        type            empty;
    }
    procBoundary0to1
    {
        type            processor;
        value           nonuniform List<scalar> 
21
(
7.96416e+14
2.74063e+13
5.31181e+13
3.13057e+13
6.79851e+14
1.07141e+16
1.02294e+17
1.21027e+16
7.70977e+16
2.25103e+18
2.25103e+18
1.0103e+19
9.15136e+16
1.85296e+16
8.7257e+15
1.1532e+16
5.49549e+15
1.34801e+16
2.65253e+15
1.19708e+17
2.88448e+17
)
;
    }
    procBoundary0to2
    {
        type            processor;
        value           uniform 0;
    }
    procBoundary0to3
    {
        type            processor;
        value           uniform 0;
    }
}

diagonal:  Solving for moment.3.populationBalance, Initial residual = 0, Final residual = 0, No Iterations 0
aggregationSource : dimensions      [0 9 -1 0 0 0 0];

internalField   nonuniform List<scalar> 
250
(
0
0
0
0
0
0
0
0
0
0.0461021
0
0
0
0
0
0
0
0
0
0.0173486
0
0
0
0
0
0
0
0
0
0
0
0
0
0
0
0
0
0
0
0.00406446
0
0
0
0
0
0
0
0
0
0
0
0
0
0
0
0
0
0
0
0.000728747
0
0
0
0
0
0
0
0
0
0
0
0
0
0
0
0
0
0
0
284.05
0
0
0
0
0
0
0
0
0
0
0
0
0
0
0
0
0
0
0
7.49889e-05
0
0
0
0
0
0
0
0
0
0
0
0
0
0
0
0
0
0
0
4.51506e+09
0
0
0
0
0
0
0
0
0
0
0
0
0
0
0
0
0
0
0
4.86632e+22
0
0
0
0
0
0
0
0
0
0
0
0
0
0
0
0
0
0
0
0
0
0
0
0
0
0
0
0
0
0
0
0
0
0
0
0
0
0
0
0
1.34643e-05
0
0
0
0
0
0
0
0
0
0
0
0
0
0
0
0
0
7.9077e-06
9.40078e+13
1.03251
4.1539e-06
1.48548e-05
8546.77
0
1.06159e-27
507870
0
951.189
3.98309e+06
294172
1636.99
9.24502e-05
1.20931e-05
1.98237e-05
9.79632e-12
0
0
0.152434
2.56533e+18
1.74017e+15
2.76698e+08
6.19871e+09
2.76466e+06
4.64851e+11
1.42113e+13
1.72397e+14
1.69118e+14
3.48163e+14
7.56342e+16
1.68141e+16
2.67256e+13
1.81772e+12
7.54186e+10
1.20897e+11
5.60244e+09
5.48931e+10
5.6077e+08
6.47883e+16
1.29982e+19
1.13452e+22
6.87966e+19
8.60195e+18
2.24661e+18
3.19742e+18
9.13588e+17
3.34584e+18
2.62491e+17
2.96816e+20
1.3722e+21
)
;

boundaryField
{
    fuel
    {
        type            calculated;
        value           nonuniform 0();
    }
    wall
    {
        type            calculated;
        value           nonuniform 0();
    }
    outlet
    {
        type            calculated;
        value           nonuniform List<scalar> 
25
(
0
0
0
0
0
0
0
0
1.34644e-05
1.03252
1.74018e+15
0.0461005
0.0173481
0.0040644
0.000728749
284.051
7.49889e-05
4.51506e+09
4.8663e+22
0
0
9.40068e+13
2.56529e+18
1.29979e+19
1.37217e+21
)
;
    }
    frontAndBack
    {
        type            empty;
    }
    procBoundary0to1
    {
        type            processor;
        value           nonuniform List<scalar> 
21
(
4.26028e+19
6.98532e+17
1.73467e+18
7.06346e+17
1.42366e+19
1.79617e+20
1.61574e+21
2.53336e+20
1.37988e+21
3.62724e+22
3.62724e+22
6.04907e+23
8.27255e+21
2.63345e+21
1.28553e+21
1.78092e+21
7.635e+20
2.05163e+21
3.23674e+20
2.58299e+22
3.81441e+22
)
;
    }
    procBoundary0to2
    {
        type            processor;
        value           uniform 0;
    }
    procBoundary0to3
    {
        type            processor;
        value           uniform 0;
    }
}

diagonal:  Solving for moment.4.populationBalance, Initial residual = 0, Final residual = 0, No Iterations 0
--------------------------------------------------------------------------
MPI_ABORT was invoked on rank 0 in communicator MPI_COMM_WORLD 
with errorcode 1.

NOTE: invoking MPI_ABORT causes Open MPI to kill all MPI processes.
You may or may not see output from other processes, depending on
exactly when Open MPI kills them.
--------------------------------------------------------------------------
