/*---------------------------------------------------------------------------*\
| =========                 |                                                 |
| \\      /  F ield         | OpenFOAM: The Open Source CFD Toolbox           |
|  \\    /   O peration     | Version:  dev                                   |
|   \\  /    A nd           | Web:      www.OpenFOAM.org                      |
|    \\/     M anipulation  |                                                 |
\*---------------------------------------------------------------------------*/
Build  : dev-b68873d57046
Exec   : pbeTransportFoam
Date   : Jun 28 2016
Time   : 11:10:04
Host   : "apgroup-5400-1"
PID    : 8403
Case   : /home/luc/OpenFOAM/OpenQBMM-dev/tutorials/pbeTransportFoam/combustion
nProcs : 1
sigFpe : Enabling floating point exception trapping (FOAM_SIGFPE).
fileModificationChecking : Monitoring run-time modified files using timeStampMaster
allowSystemOperations : Allowing user-supplied system call operations

// * * * * * * * * * * * * * * * * * * * * * * * * * * * * * * * * * * * * * //
Create time

Create mesh for time = 0


PIMPLE: Operating solver in PISO mode


Reading g
Reading thermophysical properties

Selecting thermodynamics package 
{
    type            heRhoThermo;
    mixture         reactingMixture;
    transport       sutherland;
    thermo          janaf;
    energy          sensibleEnthalpy;
    equationOfState perfectGas;
    specie          specie;
}

Selecting chemistryReader foamChemistryReader
Reading field U

Reading/calculating face flux field phi

Creating turbulence model

Selecting turbulence model type laminar
Calculating field g.h

Reading field p_rgh

--> FOAM Warning : 
    From function const Foam::HashTable<Foam::List<int>, Foam::word>& Foam::polyBoundaryMesh::groupPatchIDs() const
    in file meshes/polyMesh/polyBoundaryMesh/polyBoundaryMesh.C at line 448
    Patch wall specifies a group wall which is also a patch name. This might give problems later on.
Reading populationBalanceProperties

Selecting populationBalanceModel univariate
Selecting extendedMomentInversion: lognormal
Selecting extendedMomentInversion: lognormal
Selecting aggregationKernel Fuchs
Selecting breakupKernel constant
Selecting daughterDistribution symmetricFragmentation
Selecting convectionModel growthReduction
Selecting diffusionModel none
Selecting nucleationModel Miller
Radiation model not active: radiationProperties not found
Selecting radiationModel none
Courant Number mean: 9.02813 max: 12.9858
--> FOAM Warning : 
    From function void Foam::timeControl::read(const Foam::dictionary&)
    in file db/functionObjects/timeControl/timeControl.C at line 89
    Reading "/home/luc/OpenFOAM/OpenQBMM-dev/tutorials/pbeTransportFoam/combustion/system/controlDict.functions.probes" from line 58 to line 94
    Using deprecated 'outputControl'
    Please use 'writeControl' with 'writeInterval'

Starting time loop

Courant Number mean: 0.347236 max: 0.499454
deltaT = 3.84615e-05
Time = 3.84615384615e-05

PIMPLE: iteration 1
RK23-SSP: Solving for moment source terms
