/*---------------------------------------------------------------------------*\
| =========                 |                                                 |
| \\      /  F ield         | OpenFOAM: The Open Source CFD Toolbox           |
|  \\    /   O peration     | Version:  dev                                   |
|   \\  /    A nd           | Web:      www.OpenFOAM.org                      |
|    \\/     M anipulation  |                                                 |
\*---------------------------------------------------------------------------*/
Build  : dev-b68873d57046
Exec   : pbeTransportFoam -parallel
Date   : Jun 21 2016
Time   : 09:28:15
Host   : "apgroup-5400-1"
PID    : 3648
Case   : /home/luc/OpenFOAM/OpenQBMM-dev/tutorials/pbeTransportFoam/combustion
nProcs : 4
Slaves : 
3
(
"apgroup-5400-1.3649"
"apgroup-5400-1.3650"
"apgroup-5400-1.3651"
)

Pstream initialized with:
    floatTransfer      : 0
    nProcsSimpleSum    : 0
    commsType          : nonBlocking
    polling iterations : 0
sigFpe : Enabling floating point exception trapping (FOAM_SIGFPE).
fileModificationChecking : Monitoring run-time modified files using timeStampMaster
allowSystemOperations : Allowing user-supplied system call operations

// * * * * * * * * * * * * * * * * * * * * * * * * * * * * * * * * * * * * * //
Create time

Create mesh for time = 0


PIMPLE: Operating solver in PISO mode


Reading g
Reading thermophysical properties

Selecting thermodynamics package 
{
    type            heRhoThermo;
    mixture         reactingMixture;
    transport       sutherland;
    thermo          janaf;
    energy          sensibleEnthalpy;
    equationOfState perfectGas;
    specie          specie;
}

Selecting chemistryReader foamChemistryReader
Reading field U

Reading/calculating face flux field phi

Creating turbulence model

Selecting turbulence model type laminar
Calculating field g.h

Reading field p_rgh

Reading populationBalanceProperties

Selecting populationBalanceModel univariate
Selecting extendedMomentInversion: lognormal
Selecting extendedMomentInversion: lognormal
Selecting aggregationKernel Fuchs
Selecting breakupKernel constant
Selecting daughterDistribution symmetricFragmentation
Selecting convectionModel growthReduction
Selecting diffusionModel none
Selecting nucleationModel Miller
Radiation model not active: radiationProperties not found
Selecting radiationModel none
Courant Number mean: 0.000634394 max: 0.0507515
--> FOAM Warning : 
    From function void Foam::timeControl::read(const Foam::dictionary&)
    in file db/functionObjects/timeControl/timeControl.C at line 89
    Reading "/home/luc/OpenFOAM/OpenQBMM-dev/tutorials/pbeTransportFoam/combustion/system/controlDict.functions.probes" from line 58 to line 94
    Using deprecated 'outputControl'
    Please use 'writeControl' with 'writeInterval'

Starting time loop

Courant Number mean: 0.000621955 max: 0.0497564
deltaT = 0.000116279
Time = 0.000116279069767

PIMPLE: iteration 1
RK23-SSP: Solving for moment source terms
