/*---------------------------------------------------------------------------*\
| =========                 |                                                 |
| \\      /  F ield         | OpenFOAM: The Open Source CFD Toolbox           |
|  \\    /   O peration     | Version:  dev                                   |
|   \\  /    A nd           | Web:      www.OpenFOAM.org                      |
|    \\/     M anipulation  |                                                 |
\*---------------------------------------------------------------------------*/
Build  : dev-fa8929df6dcf
Exec   : pbeTransportFoam -parallel
Date   : Jun 01 2016
Time   : 15:02:55
Host   : "apgroup-5400-1"
PID    : 9591
Case   : /home/luc/OpenFOAM/OpenQBMM-dev/tutorials/pbeTransportFoam/combustion
nProcs : 4
Slaves : 
3
(
"apgroup-5400-1.9592"
"apgroup-5400-1.9593"
"apgroup-5400-1.9594"
)

Pstream initialized with:
    floatTransfer      : 0
    nProcsSimpleSum    : 0
    commsType          : nonBlocking
    polling iterations : 0
sigFpe : Enabling floating point exception trapping (FOAM_SIGFPE).
fileModificationChecking : Monitoring run-time modified files using timeStampMaster
allowSystemOperations : Allowing user-supplied system call operations

// * * * * * * * * * * * * * * * * * * * * * * * * * * * * * * * * * * * * * //
Create time

Create mesh for time = 0.001


PIMPLE: Operating solver in PISO mode


Reading g
Reading thermophysical properties

Selecting thermodynamics package 
{
    type            heRhoThermo;
    mixture         reactingMixture;
    transport       sutherland;
    thermo          janaf;
    energy          sensibleEnthalpy;
    equationOfState perfectGas;
    specie          specie;
}

Selecting chemistryReader foamChemistryReader
Reading field U

Reading/calculating face flux field phi

Creating turbulence model

Selecting turbulence model type laminar
Calculating field g.h

Reading field p_rgh

Reading populationBalanceProperties

Selecting populationBalanceModel univariatePopulationBalance
Selecting extendedMomentInversion: lognormal
Selecting aggregationKernel Fuchs
Selecting breakupKernel constant
Selecting daughterDistribution symmetricFragmentation
Selecting convectionModel growthReduction
Selecting diffusionModel none
Selecting nucleationModel Miller
Radiation model not active: radiationProperties not found
Selecting radiationModel none
Courant Number mean: 0.0912111 max: 0.496767

Starting time loop

--> FOAM Warning : 
    From function virtual void Foam::probes::findElements(const Foam::fvMesh&)
    in file probes/probes.C at line 130
    Location (0 0 0.004) seems to be on multiple domains: cell 0 on my domain 0 and cell 239 on some other domain.
This might happen if the probe location is on a processor patch. Change the location slightly to prevent this.
--> FOAM Warning : 
    From function virtual void Foam::probes::findElements(const Foam::fvMesh&)
    in file probes/probes.C at line 144
    Location (0 0 0.004) seems to be on multiple domains: cell 1 on my domain 0 and face 454 on some other domain.
This might happen if the probe location is on a processor patch. Change the location slightly to prevent this.
Courant Number mean: 0.0912111 max: 0.496767
deltaT = 2.38095e-05
Time = 0.00102380952381

PIMPLE: iteration 1

5
(
dimensions      [0 -3 0 0 0 0 0];

internalField   nonuniform List<scalar> 
250
(
0
0
0
0
0
0
0
0
0
0
0
0
0
0
0
0
0
0
0
1.96049e+09
0
0
0
0
0
0
0
0
0
0
0
0
0
0
0
0
0
0
0
3.29067e+10
0
0
0
0
0
0
0
0
0
0
0
0
0
0
0
0
0
0
0
7.28747e+09
0
0
0
0
0
0
0
0
0
0
0
0
0
0
0
0
0
0
0
5.5635e+11
0
0
0
0
0
0
0
0
0
0
0
0
0
0
0
0
0
0
0
5.26386e+12
0
0
0
0
0
0
0
0
0
0
0
0
0
0
0
0
0
0
0
4.6007e+15
0
0
0
0
0
0
0
0
0
0
0
0
0
0
0
0
0
0
0
1.29186e+15
0
0
0
0
0
0
0
0
0
0
0
0
0
0
0
0
0
0
0
267.34
0
0
0
0
0
0
0
0
0
0
0
0
0
0
0
0
0
0
0
0
3.43566e+07
0
0
0
0
0
0
0
0
0
0
0
0
0
0
0
0
0
2.14412e+07
9.19546e+09
1.53692e+07
1.88785e+07
1.09139e+07
0
7.85677e+06
2.63701e+09
0
0
2.68532e+07
3.83946e+11
3.99345e+08
0
0
674669
7.92318e+06
7.81372e+06
8.50798e+06
1.13626e+07
2.83241e+06
1.15077e+10
3.95602e+08
2.35456e+08
1.52655e+08
0
1.06102e+09
4.58844e+09
3.57674e+10
8.05005e+09
4.14883e+10
3.17722e+11
9.32035e+10
6.22803e+09
4.92286e+08
1.57686e+08
1.49263e+08
1.23025e+08
1.62067e+08
1.30924e+08
3.42741e+08
7.67255e+09
6.19853e+10
3.91663e+09
5.26032e+08
2.56038e+08
2.53942e+08
2.24261e+08
2.78129e+08
2.44011e+08
5.21077e+08
4.56385e+09
)
;

boundaryField
{
    fuel
    {
        type            zeroGradient;
    }
    wall
    {
        type            zeroGradient;
    }
    outlet
    {
        type            zeroGradient;
    }
    frontAndBack
    {
        type            empty;
    }
    procBoundary0to1
    {
        type            processor;
        value           nonuniform List<scalar> 
21
(
6.6175e+08
4.18595e+08
2.87535e+08
2.43627e+08
1.192e+09
6.03351e+09
2.5254e+10
5.77102e+09
2.48979e+10
1.74398e+11
1.74398e+11
2.6595e+10
1.9096e+09
4.48729e+08
3.09978e+08
3.17024e+08
2.93153e+08
3.4428e+08
3.29439e+08
5.84932e+08
2.81345e+09
)
;
    }
    procBoundary0to2
    {
        type            processor;
        value           nonuniform List<scalar> 
12
(
0
7.06051e+07
0
0
0
0
0
0
0
0
0
0
)
;
    }
    procBoundary0to3
    {
        type            processor;
        value           nonuniform List<scalar> 10(0 0 0 0 0 0 0 0 0 642429);
    }
}

dimensions      [0 0 0 0 0 0 0];

internalField   nonuniform List<scalar> 
250
(
0
0
0
0
0
0
0
0
0
0
0
0
0
0
0
0
0
0
0
4.77852e+08
0
0
0
0
0
0
0
0
0
0
0
0
0
0
0
0
0
0
0
6.33523e+09
0
0
0
0
0
0
0
0
0
0
0
0
0
0
0
0
0
0
0
3.68375e+09
0
0
0
0
0
0
0
0
0
0
0
0
0
0
0
0
0
0
0
6.59456e+10
0
0
0
0
0
0
0
0
0
0
0
0
0
0
0
0
0
0
0
5.70719e+11
0
0
0
0
0
0
0
0
0
0
0
0
0
0
0
0
0
0
0
5.95998e+14
0
0
0
0
0
0
0
0
0
0
0
0
0
0
0
0
0
0
0
2.52124e+14
0
0
0
0
0
0
0
0
0
0
0
0
0
0
0
0
0
0
0
99.313
0
0
0
0
0
0
0
0
0
0
0
0
0
0
0
0
0
0
0
0
1.16632e+06
0
0
0
0
0
0
0
0
0
0
0
0
0
0
0
0
0
806938
7.14872e+10
1.29085e+07
644719
674473
0
427142
814188
0
0
4.78848e+06
2.34275e+09
2.51572e+06
0
0
122266
607443
362266
613509
231756
2.91347e+06
1.15699e+12
1.59281e+11
1.11219e+09
4.12546e+09
0
3.65209e+10
2.26381e+11
9.43242e+11
4.04826e+11
8.94042e+11
8.38738e+12
3.91712e+12
1.91871e+11
3.25826e+10
7.89077e+09
9.09215e+09
2.85194e+09
7.81714e+09
8.33982e+08
4.05576e+11
5.84409e+12
8.88124e+13
6.56901e+12
1.5306e+12
8.1752e+11
9.16908e+11
6.0132e+11
9.8459e+11
3.89244e+11
4.27954e+12
1.54148e+13
)
;

boundaryField
{
    fuel
    {
        type            zeroGradient;
    }
    wall
    {
        type            zeroGradient;
    }
    outlet
    {
        type            zeroGradient;
    }
    frontAndBack
    {
        type            empty;
    }
    procBoundary0to1
    {
        type            processor;
        value           nonuniform List<scalar> 
21
(
2.66326e+12
6.74841e+11
7.85472e+11
5.46852e+11
2.32604e+12
1.1081e+13
4.32567e+13
1.15826e+13
3.16786e+13
1.60475e+14
1.60475e+14
1.63771e+14
1.41524e+13
6.03596e+12
4.50218e+12
5.04418e+12
3.80638e+12
5.48558e+12
2.96563e+12
1.3791e+13
2.58744e+13
)
;
    }
    procBoundary0to2
    {
        type            processor;
        value           nonuniform List<scalar> 
12
(
0
4.30053e+06
0
0
0
0
0
0
0
0
0
0
)
;
    }
    procBoundary0to3
    {
        type            processor;
        value           nonuniform List<scalar> 10(0 0 0 0 0 0 0 0 0 401907);
    }
}

dimensions      [0 3 0 0 0 0 0];

internalField   nonuniform List<scalar> 
250
(
0
0
0
0
0
0
0
0
0
0
0
0
0
0
0
0
0
0
0
1.16472e+08
0
0
0
0
0
0
0
0
0
0
0
0
0
0
0
0
0
0
0
1.21966e+09
0
0
0
0
0
0
0
0
0
0
0
0
0
0
0
0
0
0
0
1.86211e+09
0
0
0
0
0
0
0
0
0
0
0
0
0
0
0
0
0
0
0
7.81694e+09
0
0
0
0
0
0
0
0
0
0
0
0
0
0
0
0
0
0
0
6.18787e+10
0
0
0
0
0
0
0
0
0
0
0
0
0
0
0
0
0
0
0
7.72087e+13
0
0
0
0
0
0
0
0
0
0
0
0
0
0
0
0
0
0
0
4.92051e+13
0
0
0
0
0
0
0
0
0
0
0
0
0
0
0
0
0
0
0
36.8934
0
0
0
0
0
0
0
0
0
0
0
0
0
0
0
0
0
0
0
0
39593.9
0
0
0
0
0
0
0
0
0
0
0
0
0
0
0
0
0
30369
1.19176e+12
1.08417e+07
22017.8
41682.2
0
23222
28504.9
0
0
853886
1.43593e+07
74022.4
0
0
22157.5
48103.5
16795.6
44240.2
4726.99
3.0004e+06
4.96936e+14
2.04266e+14
4.30589e+10
3.16423e+11
0
1.77387e+12
1.18739e+13
5.00931e+13
4.72415e+13
6.39226e+13
8.87561e+14
4.4922e+14
1.59158e+13
4.37309e+12
9.76033e+11
1.39677e+12
2.27616e+11
9.3846e+11
6.55944e+10
1.21233e+15
1.32073e+16
3.49613e+17
2.47935e+16
1.08502e+16
6.59274e+15
8.10151e+15
4.32461e+15
8.33893e+15
2.14022e+15
7.93368e+16
1.29328e+17
)
;

boundaryField
{
    fuel
    {
        type            zeroGradient;
    }
    wall
    {
        type            zeroGradient;
    }
    outlet
    {
        type            zeroGradient;
    }
    frontAndBack
    {
        type            empty;
    }
    procBoundary0to1
    {
        type            processor;
        value           nonuniform List<scalar> 
21
(
2.94012e+16
3.41724e+15
5.55103e+15
2.66684e+15
9.5169e+15
3.29168e+16
1.19096e+17
4.46722e+16
1.08692e+17
4.69215e+17
4.69215e+17
1.72835e+18
2.35595e+17
1.85826e+17
1.44034e+17
1.70567e+17
1.12773e+17
1.83493e+17
7.18629e+16
6.59324e+17
6.29287e+17
)
;
    }
    procBoundary0to2
    {
        type            processor;
        value           nonuniform List<scalar> 
12
(
0
261944
0
0
0
0
0
0
0
0
0
0
)
;
    }
    procBoundary0to3
    {
        type            processor;
        value           nonuniform List<scalar> 10(0 0 0 0 0 0 0 0 0 251435);
    }
}

dimensions      [0 6 0 0 0 0 0];

internalField   nonuniform List<scalar> 
250
(
0
0
0
0
0
0
0
0
0
0
0
0
0
0
0
0
0
0
0
2.83891e+07
0
0
0
0
0
0
0
0
0
0
0
0
0
0
0
0
0
0
0
2.34811e+08
0
0
0
0
0
0
0
0
0
0
0
0
0
0
0
0
0
0
0
9.41293e+08
0
0
0
0
0
0
0
0
0
0
0
0
0
0
0
0
0
0
0
9.26966e+08
0
0
0
0
0
0
0
0
0
0
0
0
0
0
0
0
0
0
0
6.70903e+09
0
0
0
0
0
0
0
0
0
0
0
0
0
0
0
0
0
0
0
1.0002e+13
0
0
0
0
0
0
0
0
0
0
0
0
0
0
0
0
0
0
0
9.603e+12
0
0
0
0
0
0
0
0
0
0
0
0
0
0
0
0
0
0
0
13.7054
0
0
0
0
0
0
0
0
0
0
0
0
0
0
0
0
0
0
0
0
1344.12
0
0
0
0
0
0
0
0
0
0
0
0
0
0
0
0
0
1142.93
4.46269e+13
9.10592e+06
751.932
2575.95
0
1262.49
1732.72
0
0
152266
94309.6
6134.95
0
0
4015.46
3811.11
778.692
3190.16
96.4137
3.10666e+06
4.72528e+17
4.70195e+17
4.00181e+12
3.93557e+13
0
1.06068e+14
6.68284e+14
2.8897e+15
6.28077e+15
5.19551e+15
1.07718e+17
6.00545e+16
1.6754e+15
9.67229e+14
1.91776e+14
3.27216e+14
3.5897e+13
1.71639e+14
9.25318e+12
5.50804e+18
7.11994e+19
1.73318e+21
1.69122e+20
1.35477e+20
8.37426e+19
1.08771e+20
4.95558e+19
1.06175e+20
2.14127e+19
2.2149e+21
2.70753e+21
)
;

boundaryField
{
    fuel
    {
        type            zeroGradient;
    }
    wall
    {
        type            zeroGradient;
    }
    outlet
    {
        type            zeroGradient;
    }
    frontAndBack
    {
        type            empty;
    }
    procBoundary0to1
    {
        type            processor;
        value           nonuniform List<scalar> 
21
(
5.47488e+20
2.96987e+19
6.12394e+19
2.15696e+19
7.50058e+19
1.56381e+20
4.40616e+20
2.71322e+20
4.98157e+20
1.8918e+21
1.8918e+21
2.96219e+22
8.37972e+21
9.05355e+21
6.87875e+21
8.41041e+21
5.07047e+21
8.89155e+21
2.89235e+21
4.5048e+22
3.3858e+22
)
;
    }
    procBoundary0to2
    {
        type            processor;
        value           nonuniform List<scalar> 
12
(
0
15954.9
0
0
0
0
0
0
0
0
0
0
)
;
    }
    procBoundary0to3
    {
        type            processor;
        value           nonuniform List<scalar> 10(0 0 0 0 0 0 0 0 0 157299);
    }
}

dimensions      [0 9 0 0 0 0 0];

internalField   nonuniform List<scalar> 
250
(
0
0
0
0
0
0
0
0
0
0
0
0
0
0
0
0
0
0
0
6.9196e+06
0
0
0
0
0
0
0
0
0
0
0
0
0
0
0
0
0
0
0
4.5206e+07
0
0
0
0
0
0
0
0
0
0
0
0
0
0
0
0
0
0
0
4.75877e+08
0
0
0
0
0
0
0
0
0
0
0
0
0
0
0
0
0
0
0
1.10503e+08
0
0
0
0
0
0
0
0
0
0
0
0
0
0
0
0
0
0
0
7.27408e+08
0
0
0
0
0
0
0
0
0
0
0
0
0
0
0
0
0
0
0
1.29571e+12
0
0
0
0
0
0
0
0
0
0
0
0
0
0
0
0
0
0
0
1.87415e+12
0
0
0
0
0
0
0
0
0
0
0
0
0
0
0
0
0
0
0
5.09136
0
0
0
0
0
0
0
0
0
0
0
0
0
0
0
0
0
0
0
0
45.6296
0
0
0
0
0
0
0
0
0
0
0
0
0
0
0
0
0
43.0141
2.39025e+15
7.64801e+06
25.6793
159.193
0
68.6365
105.494
0
0
27152.1
1233.42
566.085
0
0
727.697
301.945
36.1023
230.043
1.96649
3.29579e+06
7.66026e+20
1.3357e+21
4.70264e+14
5.82477e+15
0
7.81246e+15
4.29733e+16
1.81089e+17
9.45365e+17
4.78123e+17
1.49838e+19
8.50813e+18
2.13192e+17
2.93246e+17
4.69852e+16
8.9678e+16
7.49549e+15
3.68853e+16
1.59413e+15
2.93767e+22
7.17914e+23
1.08043e+25
1.81182e+24
2.16297e+24
1.27341e+24
1.72344e+24
6.81423e+23
1.59275e+24
2.67948e+23
7.36631e+25
9.41788e+25
)
;

boundaryField
{
    fuel
    {
        type            zeroGradient;
    }
    wall
    {
        type            zeroGradient;
    }
    outlet
    {
        type            zeroGradient;
    }
    frontAndBack
    {
        type            empty;
    }
    procBoundary0to1
    {
        type            processor;
        value           nonuniform List<scalar> 
21
(
1.26915e+25
3.20499e+23
8.09123e+23
2.2537e+23
8.72917e+23
1.18816e+24
2.19048e+24
2.5363e+24
3.04978e+24
1.05177e+25
1.05177e+25
8.24485e+26
4.38353e+26
5.36043e+26
3.92182e+26
4.91079e+26
2.73838e+26
5.08945e+26
1.4409e+26
3.64243e+27
2.57855e+27
)
;
    }
    procBoundary0to2
    {
        type            processor;
        value           nonuniform List<scalar> 
12
(
0
971.806
0
0
0
0
0
0
0
0
0
0
)
;
    }
    procBoundary0to3
    {
        type            processor;
        value           nonuniform List<scalar> 10(0 0 0 0 0 0 0 0 0 98407.1);
    }
}

)

diagonal:  Solving for moment.0.populationBalance, Initial residual = 0, Final residual = 0, No Iterations 0
diagonal:  Solving for moment.1.populationBalance, Initial residual = 0, Final residual = 0, No Iterations 0
diagonal:  Solving for moment.2.populationBalance, Initial residual = 0, Final residual = 0, No Iterations 0
diagonal:  Solving for moment.3.populationBalance, Initial residual = 0, Final residual = 0, No Iterations 0
diagonal:  Solving for moment.4.populationBalance, Initial residual = 0, Final residual = 0, No Iterations 0

5
(
dimensions      [0 -3 0 0 0 0 0];

internalField   nonuniform List<scalar> 
250
(
1.02684e+07
1.0293e+07
1.03154e+07
1.03164e+07
1.03402e+07
1.08212e+07
1.28273e+07
2.56794e+07
7.94426e+07
1.36335e+08
9.59697e+06
9.62088e+06
9.63552e+06
9.64122e+06
9.66461e+06
1.01026e+07
1.19226e+07
2.33425e+07
6.91736e+07
1.60557e+09
6.53756e+07
4.76738e+07
1.6961e+07
1.11709e+07
9.47274e+06
9.16153e+06
9.10895e+06
9.07821e+06
9.07731e+06
9.04801e+06
9.03487e+06
9.05601e+06
9.06595e+06
9.07508e+06
9.09878e+06
9.49577e+06
1.11468e+07
2.12346e+07
6.00255e+07
2.56297e+10
6.0363e+07
4.10533e+07
1.56646e+07
1.05306e+07
8.97367e+06
8.69099e+06
8.64169e+06
8.61105e+06
8.60941e+06
8.58393e+06
8.57384e+06
8.59112e+06
8.59899e+06
8.6098e+06
8.63432e+06
8.99296e+06
1.04916e+07
1.93581e+07
5.19631e+07
1.26551e+10
5.56319e+07
3.54134e+07
1.45808e+07
9.99861e+06
8.57333e+06
8.31398e+06
8.26753e+06
8.238e+06
8.23542e+06
8.21372e+06
8.20612e+06
8.21933e+06
8.22646e+06
8.2379e+06
8.2633e+06
8.58651e+06
9.94742e+06
1.77088e+07
4.49359e+07
4.35278e+11
5.12566e+07
3.14104e+07
1.36839e+07
9.56564e+06
8.26392e+06
8.02286e+06
7.97866e+06
7.95121e+06
7.94732e+06
7.92936e+06
7.92372e+06
7.93317e+06
7.94068e+06
7.9516e+06
7.9779e+06
8.26861e+06
9.50459e+06
1.62785e+07
3.92506e+07
4.2564e+12
4.72425e+07
2.81814e+07
1.29488e+07
9.22226e+06
8.03776e+06
7.81022e+06
7.76764e+06
7.74304e+06
7.7378e+06
7.72367e+06
7.71949e+06
7.72551e+06
7.73382e+06
7.7435e+06
7.77097e+06
8.03199e+06
9.15466e+06
1.50538e+07
3.44004e+07
3.6674e+15
4.35738e+07
2.55586e+07
1.23535e+07
8.95885e+06
7.8876e+06
7.66886e+06
7.6273e+06
7.60641e+06
7.59955e+06
7.58918e+06
7.58615e+06
7.58879e+06
7.59846e+06
7.60657e+06
7.63506e+06
7.86915e+06
8.88876e+06
1.40202e+07
3.02995e+07
1.84069e+15
4.02259e+07
2.3408e+07
1.18474e+07
8.77094e+06
7.79783e+06
7.58859e+06
7.55084e+06
7.53042e+06
7.5223e+06
7.51529e+06
7.51336e+06
7.516e+06
7.52396e+06
7.53066e+06
7.56025e+06
7.76939e+06
8.69848e+06
1.31632e+07
2.68539e+07
2.12585e+14
3.71644e+07
2.16278e+07
1.14413e+07
8.65054e+06
7.76835e+06
7.56844e+06
7.53156e+06
7.51488e+06
7.50501e+06
7.50154e+06
7.50022e+06
7.50066e+06
7.50968e+06
7.51455e+06
7.54512e+06
7.73232e+06
8.57613e+06
1.2396e+07
2.38382e+07
4.93613e+07
6.54958e+07
2.01384e+07
1.11419e+07
8.5899e+06
7.78967e+06
7.59975e+06
7.56392e+06
7.55069e+06
7.53932e+06
7.53901e+06
7.53808e+06
7.53658e+06
7.54668e+06
7.54985e+06
7.58119e+06
7.74889e+06
8.51464e+06
1.18196e+07
4.16478e+07
7.70142e+09
4.8478e+07
3.62161e+07
2.10314e+07
8.69468e+06
4.50535e+07
2.47262e+09
7.64279e+06
7.74602e+06
4.90329e+08
3.63057e+11
3.85506e+08
7.93114e+06
7.6297e+06
8.2622e+06
1.51005e+07
1.51003e+07
1.66093e+07
2.16049e+07
2.3221e+07
1.09811e+10
3.96697e+08
2.36789e+08
1.53388e+08
2.38832e+07
1.05418e+09
4.78688e+09
3.36905e+10
7.78652e+09
3.96116e+10
3.22015e+11
8.85568e+10
5.96888e+09
4.97726e+08
1.58618e+08
1.50157e+08
1.23919e+08
1.63371e+08
1.31769e+08
3.45078e+08
8.0314e+09
6.37132e+10
4.089e+09
5.46807e+08
2.60447e+08
2.57458e+08
2.26633e+08
2.81802e+08
2.45773e+08
5.27766e+08
4.86776e+09
)
;

boundaryField
{
    fuel
    {
        type            zeroGradient;
    }
    wall
    {
        type            zeroGradient;
    }
    outlet
    {
        type            zeroGradient;
    }
    frontAndBack
    {
        type            empty;
    }
    procBoundary0to1
    {
        type            processor;
        value           nonuniform List<scalar> 
21
(
6.66723e+08
4.21834e+08
2.90849e+08
2.52822e+08
1.25018e+09
6.15741e+09
2.5686e+10
5.98262e+09
2.59324e+10
1.81954e+11
1.81954e+11
2.82997e+10
2.03227e+09
4.671e+08
3.16393e+08
3.23052e+08
2.97868e+08
3.50732e+08
3.3348e+08
5.95374e+08
2.97761e+09
)
;
    }
    procBoundary0to2
    {
        type            processor;
        value           nonuniform List<scalar> 
12
(
1.02898e+07
7.76244e+07
5.54625e+07
1.85022e+07
1.19276e+07
1.00787e+07
9.73334e+06
9.67649e+06
9.64752e+06
9.64667e+06
9.61392e+06
9.61392e+06
)
;
    }
    procBoundary0to3
    {
        type            processor;
        value           nonuniform List<scalar> 10(1.10574e+07 1.10797e+07 1.11119e+07 1.11081e+07 1.11332e+07 1.16597e+07 1.38639e+07 2.86748e+07 9.08025e+07 6.03016e+08);
    }
}

dimensions      [0 0 0 0 0 0 0];

internalField   nonuniform List<scalar> 
250
(
7.27516e+06
7.29257e+06
7.30844e+06
7.3091e+06
7.32598e+06
7.66681e+06
9.08807e+06
1.81937e+07
5.62848e+07
9.653e+07
6.79942e+06
6.81636e+06
6.82674e+06
6.83077e+06
6.84734e+06
7.15765e+06
8.44709e+06
1.65381e+07
4.90093e+07
4.5085e+08
4.63184e+07
3.37767e+07
1.20168e+07
7.91455e+06
6.71141e+06
6.49091e+06
6.45366e+06
6.43188e+06
6.43124e+06
6.41048e+06
6.40117e+06
6.41615e+06
6.42319e+06
6.42966e+06
6.44646e+06
6.72772e+06
7.89744e+06
1.50446e+07
4.25279e+07
5.01731e+09
4.2767e+07
2.90861e+07
1.10983e+07
7.46092e+06
6.35781e+06
6.15753e+06
6.12261e+06
6.1009e+06
6.09974e+06
6.08168e+06
6.07454e+06
6.08678e+06
6.09235e+06
6.10002e+06
6.11739e+06
6.37148e+06
7.43326e+06
1.37152e+07
3.68157e+07
4.24985e+09
3.9415e+07
2.50903e+07
1.03305e+07
7.08398e+06
6.07417e+06
5.89043e+06
5.85752e+06
5.83659e+06
5.83477e+06
5.81939e+06
5.81401e+06
5.82337e+06
5.82842e+06
5.83653e+06
5.85452e+06
6.08351e+06
7.04771e+06
1.25466e+07
3.18369e+07
5.222e+10
3.63151e+07
2.22541e+07
9.69503e+06
6.77722e+06
5.85496e+06
5.68417e+06
5.65286e+06
5.6334e+06
5.63065e+06
5.61793e+06
5.61393e+06
5.62062e+06
5.62595e+06
5.63368e+06
5.65232e+06
5.85828e+06
6.73397e+06
1.15333e+07
2.78089e+07
4.62622e+11
3.34711e+07
1.99664e+07
9.17417e+06
6.53394e+06
5.69472e+06
5.53351e+06
5.50334e+06
5.48592e+06
5.48221e+06
5.47219e+06
5.46923e+06
5.4735e+06
5.47938e+06
5.48624e+06
5.50571e+06
5.69063e+06
6.48604e+06
1.06655e+07
2.43726e+07
4.75113e+14
3.08719e+07
1.81082e+07
8.75242e+06
6.34732e+06
5.58834e+06
5.43336e+06
5.40392e+06
5.38912e+06
5.38426e+06
5.37691e+06
5.37476e+06
5.37663e+06
5.38348e+06
5.38923e+06
5.40941e+06
5.57527e+06
6.29766e+06
9.93327e+06
2.14671e+07
3.06763e+14
2.84999e+07
1.65845e+07
8.39382e+06
6.21418e+06
5.52473e+06
5.37649e+06
5.34974e+06
5.33527e+06
5.32953e+06
5.32456e+06
5.32319e+06
5.32506e+06
5.3307e+06
5.33545e+06
5.35641e+06
5.50459e+06
6.16284e+06
9.32607e+06
1.90259e+07
4.14886e+13
2.63309e+07
1.53232e+07
8.1061e+06
6.12888e+06
5.50385e+06
5.36222e+06
5.33608e+06
5.32426e+06
5.31728e+06
5.31481e+06
5.31388e+06
5.31419e+06
5.32059e+06
5.32403e+06
5.34569e+06
5.47832e+06
6.07616e+06
8.78249e+06
1.68893e+07
3.49723e+07
2.53986e+07
1.4268e+07
7.894e+06
6.08591e+06
5.51895e+06
5.3844e+06
5.35901e+06
5.34964e+06
5.34158e+06
5.34136e+06
5.34071e+06
5.33964e+06
5.3468e+06
5.34905e+06
5.37125e+06
5.49006e+06
6.0326e+06
8.37415e+06
1.59515e+07
5.95658e+10
3.43455e+07
1.39734e+07
8.3577e+06
6.08687e+06
5.97416e+06
6.20049e+06
5.41489e+06
5.42802e+06
1.27e+07
2.22065e+09
7.78062e+06
5.3999e+06
5.40562e+06
5.52112e+06
6.0003e+06
5.87631e+06
6.60901e+06
8.26573e+06
1.65748e+07
9.83956e+11
1.4546e+11
1.10899e+09
3.84679e+09
5.31363e+08
3.67853e+10
2.21157e+11
8.89485e+11
3.86114e+11
8.55243e+11
7.9611e+12
3.72062e+12
1.84474e+11
3.15642e+10
7.59836e+09
8.63688e+09
2.74236e+09
7.40772e+09
8.72418e+08
3.8366e+11
5.12979e+12
8.48757e+13
6.31372e+12
1.4802e+12
7.79643e+11
8.74343e+11
5.69344e+11
9.39349e+11
3.66207e+11
4.07943e+12
1.40383e+13
)
;

boundaryField
{
    fuel
    {
        type            zeroGradient;
    }
    wall
    {
        type            zeroGradient;
    }
    outlet
    {
        type            zeroGradient;
    }
    frontAndBack
    {
        type            empty;
    }
    procBoundary0to1
    {
        type            processor;
        value           nonuniform List<scalar> 
21
(
2.63052e+12
6.73509e+11
7.88832e+11
5.74249e+11
2.4808e+12
1.16676e+13
4.39854e+13
1.19581e+13
3.24039e+13
1.65237e+14
1.65237e+14
1.73772e+14
1.49612e+13
6.23419e+12
4.58712e+12
5.14517e+12
3.85938e+12
5.59752e+12
2.98155e+12
1.40621e+13
2.63821e+13
)
;
    }
    procBoundary0to2
    {
        type            processor;
        value           nonuniform List<scalar> 
12
(
7.2903e+06
5.02283e+07
3.9295e+07
1.31088e+07
8.4507e+06
7.14075e+06
6.89603e+06
6.85576e+06
6.83524e+06
6.83464e+06
6.81143e+06
6.81143e+06
)
;
    }
    procBoundary0to3
    {
        type            processor;
        value           nonuniform List<scalar> 10(7.8341e+06 7.84994e+06 7.87277e+06 7.87003e+06 7.88786e+06 8.26086e+06 9.82255e+06 2.0316e+07 6.43333e+07 2.26033e+08);
    }
}

dimensions      [0 3 0 0 0 0 0];

internalField   nonuniform List<scalar> 
250
(
5.15442e+06
5.16676e+06
5.178e+06
5.17847e+06
5.19043e+06
5.43191e+06
6.43887e+06
1.28902e+07
3.98776e+07
6.83725e+07
4.81736e+06
4.82937e+06
4.83672e+06
4.83958e+06
4.85132e+06
5.07117e+06
5.98473e+06
1.17172e+07
3.47229e+07
1.52051e+08
3.28164e+07
2.39307e+07
8.51386e+06
5.60743e+06
4.75501e+06
4.59879e+06
4.5724e+06
4.55697e+06
4.55651e+06
4.5418e+06
4.53521e+06
4.54582e+06
4.55081e+06
4.55539e+06
4.56729e+06
4.76657e+06
5.59531e+06
1.06591e+07
3.01309e+07
1.01453e+09
3.03002e+07
2.06074e+07
7.86312e+06
5.28603e+06
4.50449e+06
4.36259e+06
4.33785e+06
4.32247e+06
4.32164e+06
4.30885e+06
4.30379e+06
4.31246e+06
4.31641e+06
4.32184e+06
4.33415e+06
4.51417e+06
5.26644e+06
9.71716e+06
2.60838e+07
1.74614e+09
2.79254e+07
1.77764e+07
7.3191e+06
5.01898e+06
4.30353e+06
4.17335e+06
4.15003e+06
4.13521e+06
4.13391e+06
4.12302e+06
4.11921e+06
4.12584e+06
4.12941e+06
4.13516e+06
4.14791e+06
4.31015e+06
4.99328e+06
8.88926e+06
2.25563e+07
6.5177e+09
2.57292e+07
1.5767e+07
6.8689e+06
4.80164e+06
4.14822e+06
4.02721e+06
4.00503e+06
3.99125e+06
3.9893e+06
3.98028e+06
3.97745e+06
3.98219e+06
3.98596e+06
3.99145e+06
4.00465e+06
4.15057e+06
4.771e+06
8.17127e+06
1.97025e+07
5.03233e+10
2.37142e+07
1.41461e+07
6.49987e+06
4.62927e+06
4.03469e+06
3.92048e+06
3.8991e+06
3.88675e+06
3.88412e+06
3.87703e+06
3.87493e+06
3.87796e+06
3.88212e+06
3.88698e+06
3.90077e+06
4.03179e+06
4.59534e+06
7.5565e+06
1.72679e+07
6.15569e+13
2.18726e+07
1.28296e+07
6.20106e+06
4.49705e+06
3.95932e+06
3.84952e+06
3.82866e+06
3.81817e+06
3.81473e+06
3.80952e+06
3.808e+06
3.80933e+06
3.81418e+06
3.81825e+06
3.83255e+06
3.95006e+06
4.46187e+06
7.03769e+06
1.52094e+07
5.30726e+13
2.01921e+07
1.17501e+07
5.94699e+06
4.40273e+06
3.91425e+06
3.80922e+06
3.79027e+06
3.78002e+06
3.77595e+06
3.77243e+06
3.77146e+06
3.77279e+06
3.77678e+06
3.78015e+06
3.795e+06
3.89998e+06
4.36635e+06
6.60749e+06
1.34798e+07
8.09705e+12
1.86553e+07
1.08564e+07
5.74314e+06
4.34229e+06
3.89946e+06
3.79911e+06
3.7806e+06
3.77222e+06
3.76727e+06
3.76553e+06
3.76486e+06
3.76509e+06
3.76962e+06
3.77206e+06
3.7874e+06
3.88137e+06
4.30494e+06
6.22236e+06
1.1966e+07
2.47777e+07
1.72818e+07
1.01088e+07
5.59287e+06
4.31185e+06
3.91016e+06
3.81483e+06
3.79684e+06
3.7902e+06
3.78449e+06
3.78434e+06
3.78387e+06
3.78312e+06
3.78819e+06
3.78978e+06
3.80551e+06
3.88969e+06
4.27407e+06
5.93306e+06
1.07914e+07
9.92531e+11
2.58139e+07
9.49717e+06
5.51705e+06
4.30854e+06
3.96583e+06
3.88046e+06
3.83643e+06
3.83503e+06
4.64636e+06
1.7404e+07
3.896e+06
3.82447e+06
3.82986e+06
3.85142e+06
3.89208e+06
3.93822e+06
4.31248e+06
5.7085e+06
1.26025e+07
4.18581e+14
1.86484e+14
4.55972e+10
2.94467e+11
2.55166e+10
1.79648e+12
1.16053e+13
4.74002e+13
4.48853e+13
6.14911e+13
8.42438e+14
4.26684e+14
1.53993e+13
4.1968e+12
9.41147e+11
1.32379e+12
2.2547e+11
8.86841e+11
7.28583e+10
1.14673e+15
1.133e+16
3.33376e+17
2.38053e+16
1.0395e+16
6.27538e+15
7.71568e+15
4.10938e+15
7.94117e+15
2.05756e+15
7.5295e+16
1.14442e+17
)
;

boundaryField
{
    fuel
    {
        type            zeroGradient;
    }
    wall
    {
        type            zeroGradient;
    }
    outlet
    {
        type            zeroGradient;
    }
    frontAndBack
    {
        type            empty;
    }
    procBoundary0to1
    {
        type            processor;
        value           nonuniform List<scalar> 
21
(
2.97615e+16
3.53456e+15
5.72855e+15
2.86132e+15
1.03796e+16
3.63655e+16
1.28331e+17
4.82735e+16
1.17198e+17
5.11769e+17
5.11769e+17
1.90943e+18
2.53192e+17
1.95808e+17
1.50774e+17
1.78916e+17
1.17695e+17
1.92538e+17
7.47266e+16
6.90603e+17
6.42945e+17
)
;
    }
    procBoundary0to2
    {
        type            processor;
        value           nonuniform List<scalar> 
12
(
5.16515e+06
3.54474e+07
2.78404e+07
9.28751e+06
5.98729e+06
5.05919e+06
4.88582e+06
4.85728e+06
4.84274e+06
4.84232e+06
4.82587e+06
4.82587e+06
)
;
    }
    procBoundary0to3
    {
        type            processor;
        value           nonuniform List<scalar> 10(5.55043e+06 5.56165e+06 5.57783e+06 5.57589e+06 5.58852e+06 5.85279e+06 6.95924e+06 1.43938e+07 4.55799e+07 1.05464e+08);
    }
}

dimensions      [0 6 0 0 0 0 0];

internalField   nonuniform List<scalar> 
250
(
3.65189e+06
3.66063e+06
3.6686e+06
3.66893e+06
3.6774e+06
3.84849e+06
4.56191e+06
9.13266e+06
2.82531e+07
4.84361e+07
3.41309e+06
3.42159e+06
3.4268e+06
3.42883e+06
3.43714e+06
3.59291e+06
4.24016e+06
8.30157e+06
2.46011e+07
6.69317e+07
2.32503e+07
1.69548e+07
6.03204e+06
3.97284e+06
3.36891e+06
3.25823e+06
3.23953e+06
3.2286e+06
3.22827e+06
3.21785e+06
3.21318e+06
3.2207e+06
3.22423e+06
3.22748e+06
3.23591e+06
3.3771e+06
3.96426e+06
7.55191e+06
2.13476e+07
2.27251e+08
2.14676e+07
1.46003e+07
5.57099e+06
3.74514e+06
3.19141e+06
3.09088e+06
3.07335e+06
3.06245e+06
3.06187e+06
3.05281e+06
3.04922e+06
3.05536e+06
3.05816e+06
3.06201e+06
3.07073e+06
3.19827e+06
3.73125e+06
6.88457e+06
1.84803e+07
8.1322e+08
1.97851e+07
1.25945e+07
5.18556e+06
3.55593e+06
3.04904e+06
2.9568e+06
2.94028e+06
2.92978e+06
2.92886e+06
2.92114e+06
2.91844e+06
2.92314e+06
2.92567e+06
2.92975e+06
2.93878e+06
3.05372e+06
3.53772e+06
6.29801e+06
1.59811e+07
9.46784e+08
1.8229e+07
1.11709e+07
4.86659e+06
3.40194e+06
2.939e+06
2.85327e+06
2.83755e+06
2.82779e+06
2.8264e+06
2.82002e+06
2.81801e+06
2.82137e+06
2.82404e+06
2.82793e+06
2.83728e+06
2.94067e+06
3.38023e+06
5.78932e+06
1.39592e+07
5.4974e+09
1.68014e+07
1.00225e+07
4.60513e+06
3.27982e+06
2.85856e+06
2.77764e+06
2.7625e+06
2.75375e+06
2.75189e+06
2.74686e+06
2.74537e+06
2.74752e+06
2.75047e+06
2.75391e+06
2.76369e+06
2.85651e+06
3.25578e+06
5.35375e+06
1.22342e+07
7.97687e+12
1.54967e+07
9.08972e+06
4.39343e+06
3.18615e+06
2.80516e+06
2.72737e+06
2.71259e+06
2.70516e+06
2.70272e+06
2.69903e+06
2.69796e+06
2.69889e+06
2.70233e+06
2.70522e+06
2.71535e+06
2.7986e+06
3.16122e+06
4.98618e+06
1.07758e+07
9.4779e+12
1.4306e+07
8.32488e+06
4.21342e+06
3.11932e+06
2.77324e+06
2.69882e+06
2.6854e+06
2.67813e+06
2.67525e+06
2.67275e+06
2.67207e+06
2.67301e+06
2.67584e+06
2.67822e+06
2.68874e+06
2.76312e+06
3.09355e+06
4.68138e+06
9.55038e+06
1.58026e+12
1.32172e+07
7.69175e+06
4.069e+06
3.0765e+06
2.76275e+06
2.69166e+06
2.67854e+06
2.67261e+06
2.6691e+06
2.66786e+06
2.66739e+06
2.66755e+06
2.67076e+06
2.67249e+06
2.68336e+06
2.74994e+06
3.05003e+06
4.40852e+06
8.47786e+06
1.75549e+07
1.22199e+07
7.16207e+06
3.96253e+06
3.05493e+06
2.77033e+06
2.70279e+06
2.69005e+06
2.68534e+06
2.6813e+06
2.68119e+06
2.68086e+06
2.68033e+06
2.68392e+06
2.68505e+06
2.69619e+06
2.75583e+06
3.02817e+06
4.20355e+06
7.62649e+06
3.71658e+13
1.95826e+07
6.71471e+06
3.88382e+06
3.05237e+06
2.7954e+06
2.73203e+06
2.7181e+06
2.7152e+06
2.85353e+06
2.80007e+06
2.71648e+06
2.70959e+06
2.71344e+06
2.71779e+06
2.72903e+06
2.77964e+06
3.02879e+06
4.04114e+06
9.85395e+06
3.97873e+17
4.29261e+17
4.43646e+12
3.66243e+13
1.5255e+12
1.06943e+14
6.53822e+14
2.75676e+15
5.95346e+15
5.04027e+15
1.02242e+17
5.70418e+16
1.63104e+15
9.20946e+14
1.85538e+14
3.09777e+14
3.66804e+13
1.6211e+14
1.08654e+13
5.20998e+18
6.0779e+19
1.65258e+21
1.61865e+20
1.29231e+20
7.96973e+19
1.03546e+20
4.72582e+19
1.01026e+20
2.0931e+19
2.10023e+21
2.38287e+21
)
;

boundaryField
{
    fuel
    {
        type            zeroGradient;
    }
    wall
    {
        type            zeroGradient;
    }
    outlet
    {
        type            zeroGradient;
    }
    frontAndBack
    {
        type            empty;
    }
    procBoundary0to1
    {
        type            processor;
        value           nonuniform List<scalar> 
21
(
5.71037e+20
3.19125e+19
6.51403e+19
2.3754e+19
8.26184e+19
1.77712e+20
4.98391e+20
3.03121e+20
5.61213e+20
2.16323e+21
2.16323e+21
3.37877e+22
9.16004e+21
9.81799e+21
7.43313e+21
9.10777e+21
5.46906e+21
9.6306e+21
3.12216e+21
4.86707e+22
3.5253e+22
)
;
    }
    procBoundary0to2
    {
        type            processor;
        value           nonuniform List<scalar> 
12
(
3.65949e+06
2.51103e+07
1.97248e+07
6.58017e+06
4.24197e+06
3.58442e+06
3.46158e+06
3.44137e+06
3.43107e+06
3.43076e+06
3.41911e+06
3.41911e+06
)
;
    }
    procBoundary0to3
    {
        type            processor;
        value           nonuniform List<scalar> 10(3.93246e+06 3.94041e+06 3.95188e+06 3.9505e+06 3.95945e+06 4.14668e+06 4.9306e+06 1.0198e+07 3.22932e+07 5.98601e+07);
    }
}

dimensions      [0 9 0 0 0 0 0];

internalField   nonuniform List<scalar> 
250
(
2.58735e+06
2.59354e+06
2.59919e+06
2.59942e+06
2.60543e+06
2.72664e+06
3.2321e+06
6.47046e+06
2.00172e+07
3.43152e+07
2.41816e+06
2.42419e+06
2.42787e+06
2.42931e+06
2.4352e+06
2.54556e+06
3.00414e+06
5.88164e+06
1.74298e+07
3.74772e+07
1.64728e+07
1.20124e+07
4.27368e+06
2.81475e+06
2.38686e+06
2.30844e+06
2.29519e+06
2.28745e+06
2.28722e+06
2.27984e+06
2.27653e+06
2.28185e+06
2.28436e+06
2.28666e+06
2.29263e+06
2.39266e+06
2.80866e+06
5.35051e+06
1.51247e+07
6.57651e+07
1.52097e+07
1.03443e+07
3.94703e+06
2.65342e+06
2.26111e+06
2.18988e+06
2.17746e+06
2.16974e+06
2.16932e+06
2.1629e+06
2.16036e+06
2.16472e+06
2.1667e+06
2.16942e+06
2.1756e+06
2.26597e+06
2.64358e+06
4.8777e+06
1.30932e+07
4.03401e+08
1.40176e+07
8.92316e+06
3.67395e+06
2.51936e+06
2.16023e+06
2.09488e+06
2.08318e+06
2.07574e+06
2.07509e+06
2.06962e+06
2.06771e+06
2.07103e+06
2.07283e+06
2.07571e+06
2.08211e+06
2.16355e+06
2.50646e+06
4.46212e+06
1.13225e+07
2.0647e+08
1.29152e+07
7.91451e+06
3.44796e+06
2.41027e+06
2.08227e+06
2.02153e+06
2.01039e+06
2.00348e+06
2.0025e+06
1.99797e+06
1.99655e+06
1.99893e+06
2.00082e+06
2.00358e+06
2.0102e+06
2.08345e+06
2.39488e+06
4.10171e+06
9.89001e+06
6.16356e+08
1.19037e+07
7.10089e+06
3.26272e+06
2.32374e+06
2.02528e+06
1.96795e+06
1.95722e+06
1.95102e+06
1.9497e+06
1.94614e+06
1.94509e+06
1.94661e+06
1.9487e+06
1.95114e+06
1.95806e+06
2.02383e+06
2.30671e+06
3.79312e+06
8.66792e+06
1.03405e+12
1.09793e+07
6.44003e+06
3.11273e+06
2.25737e+06
1.98745e+06
1.93233e+06
1.92186e+06
1.9166e+06
1.91487e+06
1.91226e+06
1.91149e+06
1.91216e+06
1.91459e+06
1.91664e+06
1.92382e+06
1.9828e+06
2.23971e+06
3.53269e+06
7.6346e+06
1.73594e+12
1.01358e+07
5.89815e+06
2.98519e+06
2.21003e+06
1.96483e+06
1.91211e+06
1.90259e+06
1.89745e+06
1.8954e+06
1.89364e+06
1.89315e+06
1.89381e+06
1.89582e+06
1.89751e+06
1.90497e+06
1.95766e+06
2.19177e+06
3.31674e+06
6.76641e+06
3.08418e+11
9.36436e+06
5.44958e+06
2.88287e+06
2.17969e+06
1.9574e+06
1.90703e+06
1.89774e+06
1.89353e+06
1.89105e+06
1.89017e+06
1.88984e+06
1.88995e+06
1.89222e+06
1.89345e+06
1.90115e+06
1.94832e+06
2.16094e+06
3.12342e+06
6.00654e+06
1.24376e+07
8.65691e+06
5.0743e+06
2.80744e+06
2.16441e+06
1.96277e+06
1.91492e+06
1.90589e+06
1.90256e+06
1.89969e+06
1.89961e+06
1.89938e+06
1.899e+06
1.90155e+06
1.90235e+06
1.91024e+06
1.9525e+06
2.14545e+06
2.9782e+06
5.40262e+06
1.99063e+15
1.49624e+07
4.75686e+06
2.75013e+06
2.16258e+06
1.97975e+06
1.93459e+06
1.92576e+06
1.92337e+06
1.9456e+06
1.92183e+06
1.92104e+06
1.91973e+06
1.92247e+06
1.92357e+06
1.93124e+06
1.96887e+06
2.14398e+06
2.86304e+06
8.01494e+06
6.44992e+20
1.21941e+21
5.45412e+14
5.42051e+15
1.12295e+14
7.80117e+15
4.19993e+16
1.76217e+17
8.94805e+17
4.69878e+17
1.4222e+19
8.08131e+18
2.08227e+17
2.78049e+17
4.57785e+16
8.48469e+16
7.88324e+15
3.48343e+16
1.98153e+15
2.7787e+22
6.11822e+23
1.03018e+25
1.72799e+24
2.0597e+24
1.21249e+24
1.64014e+24
6.52244e+23
1.51456e+24
2.6593e+23
6.98339e+25
8.2612e+25
)
;

boundaryField
{
    fuel
    {
        type            zeroGradient;
    }
    wall
    {
        type            zeroGradient;
    }
    outlet
    {
        type            zeroGradient;
    }
    frontAndBack
    {
        type            empty;
    }
    procBoundary0to1
    {
        type            processor;
        value           nonuniform List<scalar> 
21
(
1.36661e+25
3.58177e+23
8.88553e+23
2.56637e+23
9.78063e+23
1.36453e+24
2.57655e+24
2.89557e+24
3.5532e+24
1.24511e+25
1.24511e+25
9.58073e+26
4.9151e+26
6.00361e+26
4.38194e+26
5.49765e+26
3.05672e+26
5.69782e+26
1.61609e+26
4.06605e+27
2.76166e+27
)
;
    }
    procBoundary0to2
    {
        type            processor;
        value           nonuniform List<scalar> 
12
(
2.59274e+06
1.77904e+07
1.3975e+07
4.66202e+06
3.00542e+06
2.53955e+06
2.45252e+06
2.4382e+06
2.4309e+06
2.43068e+06
2.42243e+06
2.42243e+06
)
;
    }
    procBoundary0to3
    {
        type            processor;
        value           nonuniform List<scalar> 10(2.78613e+06 2.79177e+06 2.79989e+06 2.79892e+06 2.80525e+06 2.93791e+06 3.49331e+06 7.22522e+06 2.28796e+07 3.83721e+07);
    }
}

)


5
(
dimensions      [0 -3 0 0 0 0 0];

internalField   nonuniform List<scalar> 
250
(
0
0
0
0
0
0
0
0
0
1.36335e+08
0
0
0
0
0
0
0
0
0
1.60557e+09
6.53756e+07
0
0
0
0
0
0
0
0
0
0
0
0
0
0
0
0
0
0
9.40016e+10
6.0363e+07
0
0
0
0
0
0
0
0
0
0
0
0
0
0
0
0
0
0
6.41586e+10
0
0
0
0
0
0
0
0
0
0
0
0
0
0
0
0
0
0
0
1.01844e+13
1.09601e-08
0
0
0
0
0
0
0
0
0
0
0
0
0
0
0
0
0
0
2.65737e+13
0
0
0
0
0
0
0
0
0
0
0
0
0
0
0
0
0
0
0
1.28655e+17
4.35738e+07
0
0
0
0
0
0
0
0
0
0
0
0
0
0
0
0
0
0
4.45294e+16
4.02259e+07
0
0
0
0
0
0
0
0
0
0
0
0
0
0
0
0
0
2.68539e+07
2.12585e+14
3.71644e+07
0
0
0
0
0
0
0
0
0
0
0
0
0
0
0
0
0
2.38382e+07
4.93613e+07
6.54958e+07
2.01384e+07
1.11419e+07
8.5899e+06
7.78967e+06
7.59975e+06
7.56392e+06
7.55069e+06
7.53932e+06
7.53901e+06
7.53808e+06
7.53658e+06
7.54668e+06
7.54985e+06
7.58119e+06
7.74889e+06
8.51464e+06
1.18196e+07
4.16478e+07
7.70142e+09
1.78715e+07
2.64858e-142
2.10314e+07
8.69468e+06
7.9122e+07
6.73416e+09
7.64279e+06
7.74602e+06
1.4123e+09
4.06685e+11
1.75704e+09
0
7.6297e+06
8.2622e+06
1.37155e+07
7.75388e-74
1.41027e-31
3.6222e-59
3.82988e+06
1.09811e+10
3.96697e+08
2.36789e+08
1.53388e+08
2.21122e+06
1.05418e+09
4.78688e+09
3.36905e+10
7.78652e+09
3.96116e+10
3.22015e+11
8.85568e+10
5.96888e+09
4.97726e+08
1.58618e+08
1.50157e+08
1.23919e+08
1.63371e+08
1.31769e+08
3.45078e+08
8.0314e+09
6.37132e+10
4.089e+09
5.46807e+08
2.60447e+08
2.57458e+08
2.26633e+08
2.81802e+08
2.45773e+08
5.27766e+08
4.86776e+09
)
;

boundaryField
{
    fuel
    {
        type            zeroGradient;
    }
    wall
    {
        type            zeroGradient;
    }
    outlet
    {
        type            zeroGradient;
    }
    frontAndBack
    {
        type            empty;
    }
    procBoundary0to1
    {
        type            processor;
        value           nonuniform List<scalar> 
21
(
6.66723e+08
4.21834e+08
2.90849e+08
2.52822e+08
1.25018e+09
6.15741e+09
2.5686e+10
5.98262e+09
2.59324e+10
1.81954e+11
1.81954e+11
2.82997e+10
2.03227e+09
4.671e+08
3.16393e+08
3.23052e+08
2.97868e+08
3.50732e+08
3.3348e+08
5.95374e+08
2.97761e+09
)
;
    }
    procBoundary0to2
    {
        type            processor;
        value           nonuniform List<scalar> 
12
(
1.02898e+07
7.76244e+07
5.54625e+07
1.85022e+07
1.19276e+07
1.00787e+07
9.73334e+06
9.67649e+06
9.64752e+06
9.64667e+06
9.61392e+06
9.61392e+06
)
;
    }
    procBoundary0to3
    {
        type            processor;
        value           nonuniform List<scalar> 10(1.10574e+07 1.10797e+07 1.11119e+07 1.11081e+07 1.11332e+07 1.16597e+07 1.38639e+07 2.86748e+07 9.08025e+07 6.03016e+08);
    }
}

dimensions      [0 0 0 0 0 0 0];

internalField   nonuniform List<scalar> 
250
(
0
0
0
0
0
0
0
0
0
4.6639e+07
0
0
0
0
0
0
0
0
0
1.46422e+08
594001
0
0
0
0
0
0
0
0
0
0
0
0
0
0
0
0
0
0
5.01408e+10
15280.2
0
0
0
0
0
0
0
0
0
0
0
0
0
0
0
0
0
0
3.12764e+10
0
0
0
0
0
0
0
0
0
0
0
0
0
0
0
0
0
0
0
4.63557e+12
2.28827e-11
0
0
0
0
0
0
0
0
0
0
0
0
0
0
0
0
0
0
1.17718e+13
0
0
0
0
0
0
0
0
0
0
0
0
0
0
0
0
0
0
0
6.02e+16
4436.05
0
0
0
0
0
0
0
0
0
0
0
0
0
0
0
0
0
0
2.38649e+16
290152
0
0
0
0
0
0
0
0
0
0
0
0
0
0
0
0
0
2847.16
1.55822e+13
2.12498e+06
0
0
0
0
0
0
0
0
0
0
0
0
0
0
0
0
0
914013
2.80089e+07
7.71005e+06
466859
279570
57791.7
162765
174024
174529
240899
191868
255748
244882
209802
240592
195024
215458
143037
229881
145833
4.94989e+06
6.484e+10
1.74512e+07
1.18163e-142
2.93948e+06
1.51192e+06
3.89354e+07
3.40097e+09
2.03466e+06
2.30723e+06
7.54086e+08
2.31255e+11
9.85e+08
0
2.30039e+06
2.13705e+06
7.38251e+06
3.68405e-74
7.41592e-32
1.47106e-59
4.12456e+06
1.09884e+12
1.55327e+11
1.13092e+09
4.05597e+09
9.86576e+06
3.85526e+10
2.32311e+11
9.34844e+11
4.07585e+11
8.99327e+11
8.43564e+12
3.94993e+12
1.95289e+11
3.34239e+10
7.98659e+09
9.09428e+09
2.86385e+09
7.79632e+09
8.76127e+08
4.0587e+11
5.70197e+12
9.08224e+13
6.80342e+12
1.57826e+12
8.26883e+11
9.26021e+11
6.03767e+11
9.94436e+11
3.88917e+11
4.3204e+12
1.54284e+13
)
;

boundaryField
{
    fuel
    {
        type            zeroGradient;
    }
    wall
    {
        type            zeroGradient;
    }
    outlet
    {
        type            zeroGradient;
    }
    frontAndBack
    {
        type            empty;
    }
    procBoundary0to1
    {
        type            processor;
        value           nonuniform List<scalar> 
21
(
2.63052e+12
6.73509e+11
7.88832e+11
5.74249e+11
2.4808e+12
1.16676e+13
4.39854e+13
1.19581e+13
3.24039e+13
1.65237e+14
1.65237e+14
1.73772e+14
1.49612e+13
6.23419e+12
4.58712e+12
5.14517e+12
3.85938e+12
5.59752e+12
2.98155e+12
1.40621e+13
2.63821e+13
)
;
    }
    procBoundary0to2
    {
        type            processor;
        value           nonuniform List<scalar> 
12
(
7.2903e+06
5.02283e+07
3.9295e+07
1.31088e+07
8.4507e+06
7.14075e+06
6.89603e+06
6.85576e+06
6.83524e+06
6.83464e+06
6.81143e+06
6.81143e+06
)
;
    }
    procBoundary0to3
    {
        type            processor;
        value           nonuniform List<scalar> 10(7.8341e+06 7.84994e+06 7.87277e+06 7.87003e+06 7.88786e+06 8.26086e+06 9.82255e+06 2.0316e+07 6.43333e+07 2.26033e+08);
    }
}

dimensions      [0 3 0 0 0 0 0];

internalField   nonuniform List<scalar> 
250
(
0
0
0
0
0
0
0
0
0
1.59632e+07
0
0
0
0
0
0
0
0
0
2.04669e+07
5397.08
0
0
0
0
0
0
0
0
0
0
0
0
0
0
0
0
0
0
2.67453e+10
3.86801
0
0
0
0
0
0
0
0
0
0
0
0
0
0
0
0
0
0
1.52468e+10
0
0
0
0
0
0
0
0
0
0
0
0
0
0
0
0
0
0
0
2.10994e+12
4.77751e-14
0
0
0
0
0
0
0
0
0
0
0
0
0
0
0
0
0
0
5.21474e+12
0
0
0
0
0
0
0
0
0
0
0
0
0
0
0
0
0
0
0
2.81688e+16
0.451614
0
0
0
0
0
0
0
0
0
0
0
0
0
0
0
0
0
0
1.279e+16
2092.89
0
0
0
0
0
0
0
0
0
0
0
0
0
0
0
0
0
0.301867
1.14217e+12
121502
0
0
0
0
0
0
0
0
0
0
0
0
0
0
0
0
0
35045.5
1.5893e+07
1.72934e+06
10822.9
7014.91
388.814
3400.97
3984.92
4027.08
7685.68
4882.83
8675.81
7955.22
5840.43
7670.17
5037.77
6123.36
2640.32
6206.38
1799.32
1.141e+06
1.12591e+12
1.70408e+07
5.27168e-143
774485
266337
1.91598e+07
1.7176e+09
541668
694865
4.16893e+08
1.315e+11
5.52192e+08
0
693575
586990
3.97371e+06
1.75038e-74
3.89967e-32
5.97435e-60
4.44258e+06
4.82509e+14
2.0405e+14
4.64883e+10
3.17971e+11
4.40187e+07
1.96161e+12
1.27764e+13
5.22101e+13
4.96366e+13
6.75686e+13
9.39765e+14
4.71942e+14
1.69668e+13
4.59814e+12
1.01554e+12
1.4317e+12
2.38824e+11
9.58641e+11
7.31806e+10
1.24913e+15
1.30715e+16
3.76846e+17
2.67129e+16
1.14305e+16
6.85667e+15
8.42489e+15
4.48293e+15
8.67144e+15
2.23155e+15
8.23586e+16
1.30353e+17
)
;

boundaryField
{
    fuel
    {
        type            zeroGradient;
    }
    wall
    {
        type            zeroGradient;
    }
    outlet
    {
        type            zeroGradient;
    }
    frontAndBack
    {
        type            empty;
    }
    procBoundary0to1
    {
        type            processor;
        value           nonuniform List<scalar> 
21
(
2.97615e+16
3.53456e+15
5.72855e+15
2.86132e+15
1.03796e+16
3.63655e+16
1.28331e+17
4.82735e+16
1.17198e+17
5.11769e+17
5.11769e+17
1.90943e+18
2.53192e+17
1.95808e+17
1.50774e+17
1.78916e+17
1.17695e+17
1.92538e+17
7.47266e+16
6.90603e+17
6.42945e+17
)
;
    }
    procBoundary0to2
    {
        type            processor;
        value           nonuniform List<scalar> 
12
(
5.16515e+06
3.54474e+07
2.78404e+07
9.28751e+06
5.98729e+06
5.05919e+06
4.88582e+06
4.85728e+06
4.84274e+06
4.84232e+06
4.82587e+06
4.82587e+06
)
;
    }
    procBoundary0to3
    {
        type            processor;
        value           nonuniform List<scalar> 10(5.55043e+06 5.56165e+06 5.57783e+06 5.57589e+06 5.58852e+06 5.85279e+06 6.95924e+06 1.43938e+07 4.55799e+07 1.05464e+08);
    }
}

dimensions      [0 6 0 0 0 0 0];

internalField   nonuniform List<scalar> 
250
(
0
0
0
0
0
0
0
0
0
5.46468e+06
0
0
0
0
0
0
0
0
0
4.63317e+06
49.0378
0
0
0
0
0
0
0
0
0
0
0
0
0
0
0
0
0
0
1.4266e+10
0.000979143
0
0
0
0
0
0
0
0
0
0
0
0
0
0
0
0
0
0
7.43259e+09
0
0
0
0
0
0
0
0
0
0
0
0
0
0
0
0
0
0
0
9.60366e+11
9.97462e-17
0
0
0
0
0
0
0
0
0
0
0
0
0
0
0
0
0
0
2.31006e+12
0
0
0
0
0
0
0
0
0
0
0
0
0
0
0
0
0
0
0
1.31807e+16
4.59768e-05
0
0
0
0
0
0
0
0
0
0
0
0
0
0
0
0
0
0
6.85462e+15
15.0962
0
0
0
0
0
0
0
0
0
0
0
0
0
0
0
0
0
3.20052e-05
8.37221e+10
6947.23
0
0
0
0
0
0
0
0
0
0
0
0
0
0
0
0
0
1343.73
9.0181e+06
387986
250.903
176.017
2.61589
71.0631
91.2492
92.9207
245.206
124.263
294.312
258.433
162.585
244.528
130.133
174.027
48.7379
167.562
22.2003
263211
4.32523e+13
1.664e+07
2.35189e-143
206274
46917.7
9.42841e+06
8.67445e+08
144203
209581
2.47614e+08
7.47751e+10
3.09559e+08
0
209116
162505
2.13889e+06
8.31644e-75
2.05064e-32
2.42633e-60
4.7883e+06
4.72997e+17
4.83724e+17
4.54996e+12
4.06412e+13
1.96416e+08
1.21011e+14
7.52739e+14
3.1738e+15
6.88126e+15
5.77178e+15
1.19601e+17
6.60801e+16
1.86904e+15
1.03766e+15
2.05499e+14
3.44883e+14
3.95079e+13
1.80337e+14
1.09313e+13
5.85808e+18
7.18476e+19
1.95989e+21
1.8727e+20
1.4633e+20
8.98721e+19
1.16784e+20
5.31752e+19
1.13971e+20
2.33085e+19
2.3736e+21
2.77149e+21
)
;

boundaryField
{
    fuel
    {
        type            zeroGradient;
    }
    wall
    {
        type            zeroGradient;
    }
    outlet
    {
        type            zeroGradient;
    }
    frontAndBack
    {
        type            empty;
    }
    procBoundary0to1
    {
        type            processor;
        value           nonuniform List<scalar> 
21
(
5.71037e+20
3.19125e+19
6.51403e+19
2.3754e+19
8.26184e+19
1.77712e+20
4.98391e+20
3.03121e+20
5.61213e+20
2.16323e+21
2.16323e+21
3.37877e+22
9.16004e+21
9.81799e+21
7.43313e+21
9.10777e+21
5.46906e+21
9.6306e+21
3.12216e+21
4.86707e+22
3.5253e+22
)
;
    }
    procBoundary0to2
    {
        type            processor;
        value           nonuniform List<scalar> 
12
(
3.65949e+06
2.51103e+07
1.97248e+07
6.58017e+06
4.24197e+06
3.58442e+06
3.46158e+06
3.44137e+06
3.43107e+06
3.43076e+06
3.41911e+06
3.41911e+06
)
;
    }
    procBoundary0to3
    {
        type            processor;
        value           nonuniform List<scalar> 10(3.93246e+06 3.94041e+06 3.95188e+06 3.9505e+06 3.95945e+06 4.14668e+06 4.9306e+06 1.0198e+07 3.22932e+07 5.98601e+07);
    }
}

dimensions      [0 9 0 0 0 0 0];

internalField   nonuniform List<scalar> 
250
(
0
0
0
0
0
0
0
0
0
1.87081e+06
0
0
0
0
0
0
0
0
0
1.3369e+06
0.445557
0
0
0
0
0
0
0
0
0
0
0
0
0
0
0
0
0
0
7.60955e+09
2.47859e-07
0
0
0
0
0
0
0
0
0
0
0
0
0
0
0
0
0
0
3.62328e+09
0
0
0
0
0
0
0
0
0
0
0
0
0
0
0
0
0
0
0
4.37123e+11
2.08253e-19
0
0
0
0
0
0
0
0
0
0
0
0
0
0
0
0
0
0
1.02332e+12
0
0
0
0
0
0
0
0
0
0
0
0
0
0
0
0
0
0
0
6.16753e+15
4.68069e-09
0
0
0
0
0
0
0
0
0
0
0
0
0
0
0
0
0
0
3.67363e+15
0.10889
0
0
0
0
0
0
0
0
0
0
0
0
0
0
0
0
0
3.39332e-09
6.13778e+09
397.228
0
0
0
0
0
0
0
0
0
0
0
0
0
0
0
0
0
51.5217
5.1171e+06
87046.6
5.81655
4.41657
0.0175993
1.48486
2.08948
2.14405
7.82309
3.16237
9.98402
8.39544
4.526
7.79567
3.36153
4.94586
0.899654
4.52387
0.273912
60718.7
2.39748e+15
1.62487e+07
1.04926e-143
54945.4
8264.98
4.63965e+06
4.38088e+08
38389.6
63225.2
1.66985e+08
4.25197e+10
1.73539e+08
0
63049.2
45033.7
1.15128e+06
3.95134e-75
1.07833e-32
9.85393e-61
5.17646e+06
7.83568e+20
1.4172e+21
5.62843e+14
6.18739e+15
8.76743e+08
9.05551e+15
4.75123e+16
2.1002e+17
1.07701e+18
5.58739e+17
1.73699e+19
9.79837e+18
2.47029e+17
3.21326e+17
5.20123e+16
9.73186e+16
8.63848e+15
3.99056e+16
1.99656e+15
3.22699e+22
7.34774e+23
1.2721e+25
2.04517e+24
2.40472e+24
1.41214e+24
1.91175e+24
7.5742e+23
1.76604e+24
3.0428e+23
8.15744e+25
9.84035e+25
)
;

boundaryField
{
    fuel
    {
        type            zeroGradient;
    }
    wall
    {
        type            zeroGradient;
    }
    outlet
    {
        type            zeroGradient;
    }
    frontAndBack
    {
        type            empty;
    }
    procBoundary0to1
    {
        type            processor;
        value           nonuniform List<scalar> 
21
(
1.36661e+25
3.58177e+23
8.88553e+23
2.56637e+23
9.78063e+23
1.36164e+24
2.57647e+24
2.89557e+24
3.5532e+24
1.24511e+25
1.24511e+25
9.58073e+26
4.9151e+26
6.00361e+26
4.38194e+26
5.49765e+26
3.05672e+26
5.69782e+26
1.61609e+26
4.06605e+27
2.76166e+27
)
;
    }
    procBoundary0to2
    {
        type            processor;
        value           nonuniform List<scalar> 
12
(
2.59274e+06
1.77904e+07
1.3975e+07
4.66202e+06
3.00542e+06
2.53955e+06
2.45252e+06
2.4382e+06
2.4309e+06
2.43068e+06
2.42243e+06
2.42243e+06
)
;
    }
    procBoundary0to3
    {
        type            processor;
        value           nonuniform List<scalar> 10(2.78613e+06 2.79177e+06 2.79989e+06 2.79892e+06 2.80525e+06 2.93791e+06 3.49331e+06 7.22522e+06 2.28796e+07 3.83721e+07);
    }
}

)

ExecutionTime = 5.32 s  ClockTime = 5 s

Courant Number mean: 0.0912112 max: 0.496768
deltaT = 2.38095e-05
Time = 0.00104761904762

PIMPLE: iteration 1

5
(
dimensions      [0 -3 0 0 0 0 0];

internalField   nonuniform List<scalar> 
250
(
0
0
0
0
0
0
0
0
0
1.36335e+08
0
0
0
0
0
0
0
0
0
1.60557e+09
0
0
0
0
0
0
0
0
0
0
0
0
0
0
0
0
0
0
0
9.40016e+10
0
0
0
0
0
0
0
0
0
0
0
0
0
0
0
0
0
0
0
6.41586e+10
0
0
0
0
0
0
0
0
0
0
0
0
0
0
0
0
0
0
0
1.01844e+13
0
0
0
0
0
0
0
0
0
0
0
0
0
0
0
0
0
0
0
2.65737e+13
0
0
0
0
0
0
0
0
0
0
0
0
0
0
0
0
0
0
0
1.28655e+17
0
0
0
0
0
0
0
0
0
0
0
0
0
0
0
0
0
0
0
4.45294e+16
0
0
0
0
0
0
0
0
0
0
0
0
0
0
0
0
0
0
0
2.12585e+14
0
0
0
0
0
0
0
0
0
0
0
0
0
0
0
0
0
0
0
4.93613e+07
3.43566e+07
0
0
0
0
0
0
0
0
0
0
0
0
0
0
0
0
0
2.14412e+07
7.70142e+09
1.78715e+07
0
1.09139e+07
8.58265e+06
7.9122e+07
6.73416e+09
7.64279e+06
7.74602e+06
0
4.06685e+11
1.75704e+09
0
7.6297e+06
8.2622e+06
1.37155e+07
0
0
0
3.82988e+06
1.09811e+10
3.96697e+08
2.36789e+08
1.53388e+08
0
1.05418e+09
4.78688e+09
3.36905e+10
7.78652e+09
3.96116e+10
3.22015e+11
8.85568e+10
5.96888e+09
4.97726e+08
1.58618e+08
1.50157e+08
1.23919e+08
1.63371e+08
1.31769e+08
3.45078e+08
8.0314e+09
6.37132e+10
4.089e+09
5.46807e+08
2.60447e+08
2.57458e+08
2.26633e+08
2.81802e+08
2.45773e+08
5.27766e+08
4.86776e+09
)
;

boundaryField
{
    fuel
    {
        type            zeroGradient;
    }
    wall
    {
        type            zeroGradient;
    }
    outlet
    {
        type            zeroGradient;
    }
    frontAndBack
    {
        type            empty;
    }
    procBoundary0to1
    {
        type            processor;
        value           nonuniform List<scalar> 
21
(
6.66723e+08
4.21834e+08
2.90849e+08
2.52822e+08
1.25018e+09
6.15741e+09
2.5686e+10
5.98262e+09
2.59324e+10
1.81954e+11
1.81954e+11
2.82997e+10
2.03227e+09
4.671e+08
3.16393e+08
3.23052e+08
2.97868e+08
3.50732e+08
3.3348e+08
5.95374e+08
2.97761e+09
)
;
    }
    procBoundary0to2
    {
        type            processor;
        value           nonuniform List<scalar> 
12
(
0
7.06051e+07
0
0
0
0
0
0
0
0
0
0
)
;
    }
    procBoundary0to3
    {
        type            processor;
        value           uniform 0;
    }
}

dimensions      [0 0 0 0 0 0 0];

internalField   nonuniform List<scalar> 
250
(
0
0
0
0
0
0
0
0
0
1.78185e+07
0
0
0
0
0
0
0
0
0
2.64058e+07
0
0
0
0
0
0
0
0
0
0
0
0
0
0
0
0
0
0
0
1.80973e+10
0
0
0
0
0
0
0
0
0
0
0
0
0
0
0
0
0
0
0
9.44748e+09
0
0
0
0
0
0
0
0
0
0
0
0
0
0
0
0
0
0
0
1.20718e+12
0
0
0
0
0
0
0
0
0
0
0
0
0
0
0
0
0
0
0
2.88118e+12
0
0
0
0
0
0
0
0
0
0
0
0
0
0
0
0
0
0
0
1.66666e+16
0
0
0
0
0
0
0
0
0
0
0
0
0
0
0
0
0
0
0
8.69047e+15
0
0
0
0
0
0
0
0
0
0
0
0
0
0
0
0
0
0
0
3.60672e+12
0
0
0
0
0
0
0
0
0
0
0
0
0
0
0
0
0
0
0
2.20372e+07
1.16632e+06
0
0
0
0
0
0
0
0
0
0
0
0
0
0
0
0
0
806938
7.04367e+10
1.50101e+07
0
674473
103978
1.19919e+07
1.10406e+09
471446
695200
0
9.37791e+10
3.89479e+08
0
693485
536082
2.71021e+06
0
0
0
3.93837e+06
1.22409e+12
1.65701e+11
1.15321e+09
4.27371e+09
0
4.0377e+10
2.43836e+11
9.81736e+11
4.29943e+11
9.45146e+11
8.93127e+12
4.19029e+12
2.06594e+11
3.53618e+10
8.38948e+09
9.56969e+09
2.98944e+09
8.20005e+09
8.79851e+08
4.29036e+11
6.32086e+12
9.70722e+13
7.32055e+12
1.68104e+12
8.76242e+11
9.79959e+11
6.39746e+11
1.05191e+12
4.12706e+11
4.57177e+12
1.69162e+13
)
;

boundaryField
{
    fuel
    {
        type            zeroGradient;
    }
    wall
    {
        type            zeroGradient;
    }
    outlet
    {
        type            zeroGradient;
    }
    frontAndBack
    {
        type            empty;
    }
    procBoundary0to1
    {
        type            processor;
        value           nonuniform List<scalar> 
21
(
2.80728e+12
7.15245e+11
8.37273e+11
6.0672e+11
2.65627e+12
1.25271e+13
4.71762e+13
1.28307e+13
3.46399e+13
1.78085e+14
1.78085e+14
1.88006e+14
1.61024e+13
6.61738e+12
4.85589e+12
5.44047e+12
4.08817e+12
5.91696e+12
3.16843e+12
1.48636e+13
2.86411e+13
)
;
    }
    procBoundary0to2
    {
        type            processor;
        value           nonuniform List<scalar> 
12
(
0
4.30053e+06
0
0
0
0
0
0
0
0
0
0
)
;
    }
    procBoundary0to3
    {
        type            processor;
        value           uniform 0;
    }
}

dimensions      [0 3 0 0 0 0 0];

internalField   nonuniform List<scalar> 
250
(
0
0
0
0
0
0
0
0
0
2.3306e+06
0
0
0
0
0
0
0
0
0
1.54006e+06
0
0
0
0
0
0
0
0
0
0
0
0
0
0
0
0
0
0
0
3.48411e+09
0
0
0
0
0
0
0
0
0
0
0
0
0
0
0
0
0
0
0
1.39116e+09
0
0
0
0
0
0
0
0
0
0
0
0
0
0
0
0
0
0
0
1.4309e+11
0
0
0
0
0
0
0
0
0
0
0
0
0
0
0
0
0
0
0
3.12384e+11
0
0
0
0
0
0
0
0
0
0
0
0
0
0
0
0
0
0
0
2.15907e+15
0
0
0
0
0
0
0
0
0
0
0
0
0
0
0
0
0
0
0
1.69606e+15
0
0
0
0
0
0
0
0
0
0
0
0
0
0
0
0
0
0
0
6.11933e+10
0
0
0
0
0
0
0
0
0
0
0
0
0
0
0
0
0
0
0
9.83844e+06
39593.9
0
0
0
0
0
0
0
0
0
0
0
0
0
0
0
0
0
30369
1.27572e+12
1.26069e+07
0
41682.2
1259.68
1.81752e+06
1.81009e+08
29081.2
63282.6
0
2.16249e+10
8.63348e+07
0
63032.9
37600.3
535543
0
0
0
4.05056e+06
5.55449e+14
2.23116e+14
4.73962e+10
3.43148e+11
0
2.13948e+12
1.40452e+13
5.74242e+13
5.48066e+13
7.41465e+13
1.04644e+15
5.21234e+14
1.86693e+13
5.03326e+12
1.09513e+12
1.54735e+12
2.52906e+11
1.03556e+12
7.35042e+10
1.35957e+15
1.50613e+16
4.25076e+17
2.99353e+16
1.25585e+16
7.48556e+15
9.19137e+15
4.88657e+15
9.46061e+15
2.4189e+15
9.00028e+16
1.48334e+17
)
;

boundaryField
{
    fuel
    {
        type            zeroGradient;
    }
    wall
    {
        type            zeroGradient;
    }
    outlet
    {
        type            zeroGradient;
    }
    frontAndBack
    {
        type            empty;
    }
    procBoundary0to1
    {
        type            processor;
        value           nonuniform List<scalar> 
21
(
3.27315e+16
3.84819e+15
6.26869e+15
3.11827e+15
1.15411e+16
4.10999e+16
1.45788e+17
5.43348e+16
1.32156e+17
5.84326e+17
5.84326e+17
2.18145e+18
2.82342e+17
2.14711e+17
1.64992e+17
1.95672e+17
1.28796e+17
2.10544e+17
8.17399e+16
7.55879e+17
7.21085e+17
)
;
    }
    procBoundary0to2
    {
        type            processor;
        value           nonuniform List<scalar> 
12
(
0
261944
0
0
0
0
0
0
0
0
0
0
)
;
    }
    procBoundary0to3
    {
        type            processor;
        value           uniform 0;
    }
}

dimensions      [0 6 0 0 0 0 0];

internalField   nonuniform List<scalar> 
250
(
0
0
0
0
0
0
0
0
0
304875
0
0
0
0
0
0
0
0
0
151737
0
0
0
0
0
0
0
0
0
0
0
0
0
0
0
0
0
0
0
6.70763e+08
0
0
0
0
0
0
0
0
0
0
0
0
0
0
0
0
0
0
0
2.04851e+08
0
0
0
0
0
0
0
0
0
0
0
0
0
0
0
0
0
0
0
1.69608e+10
0
0
0
0
0
0
0
0
0
0
0
0
0
0
0
0
0
0
0
3.38694e+10
0
0
0
0
0
0
0
0
0
0
0
0
0
0
0
0
0
0
0
2.79698e+14
0
0
0
0
0
0
0
0
0
0
0
0
0
0
0
0
0
0
0
3.31007e+14
0
0
0
0
0
0
0
0
0
0
0
0
0
0
0
0
0
0
0
1.03852e+09
0
0
0
0
0
0
0
0
0
0
0
0
0
0
0
0
0
0
0
4.39234e+06
1344.12
0
0
0
0
0
0
0
0
0
0
0
0
0
0
0
0
0
1142.93
5.02635e+13
1.05885e+07
0
2575.95
15.261
275468
2.96763e+07
1793.87
5762.09
0
4.98658e+09
1.91376e+07
0
5729.24
2639.25
105824
0
0
0
4.16891e+06
5.61344e+17
5.44428e+17
4.66612e+12
4.50545e+13
0
1.36741e+14
8.64856e+14
3.6466e+15
7.93737e+15
6.59763e+15
1.39577e+17
7.63792e+16
2.13813e+15
1.16792e+15
2.27406e+14
3.83562e+14
4.25346e+13
2.00405e+14
1.09975e+13
6.5785e+18
8.48212e+19
2.3184e+21
2.16364e+20
1.65483e+20
1.01215e+20
1.31541e+20
5.97587e+19
1.28404e+20
2.59304e+19
2.67894e+21
3.21976e+21
)
;

boundaryField
{
    fuel
    {
        type            zeroGradient;
    }
    wall
    {
        type            zeroGradient;
    }
    outlet
    {
        type            zeroGradient;
    }
    frontAndBack
    {
        type            empty;
    }
    procBoundary0to1
    {
        type            processor;
        value           nonuniform List<scalar> 
21
(
6.48095e+20
3.57431e+19
7.36184e+19
2.65985e+19
9.43244e+19
2.08247e+20
5.93249e+20
3.53718e+20
6.61511e+20
2.5893e+21
2.5893e+21
4.01024e+22
1.04604e+22
1.11122e+22
8.40532e+21
1.02975e+22
6.18217e+21
1.08887e+22
3.51967e+21
5.51081e+22
4.05574e+22
)
;
    }
    procBoundary0to2
    {
        type            processor;
        value           nonuniform List<scalar> 
12
(
0
15954.9
0
0
0
0
0
0
0
0
0
0
)
;
    }
    procBoundary0to3
    {
        type            processor;
        value           uniform 0;
    }
}

dimensions      [0 9 0 0 0 0 0];

internalField   nonuniform List<scalar> 
250
(
0
0
0
0
0
0
0
0
0
39882.9
0
0
0
0
0
0
0
0
0
15927.7
0
0
0
0
0
0
0
0
0
0
0
0
0
0
0
0
0
0
0
1.29136e+08
0
0
0
0
0
0
0
0
0
0
0
0
0
0
0
0
0
0
0
3.01647e+07
0
0
0
0
0
0
0
0
0
0
0
0
0
0
0
0
0
0
0
2.0104e+09
0
0
0
0
0
0
0
0
0
0
0
0
0
0
0
0
0
0
0
3.6722e+09
0
0
0
0
0
0
0
0
0
0
0
0
0
0
0
0
0
0
0
3.62335e+13
0
0
0
0
0
0
0
0
0
0
0
0
0
0
0
0
0
0
0
6.46002e+13
0
0
0
0
0
0
0
0
0
0
0
0
0
0
0
0
0
0
0
1.76782e+07
0
0
0
0
0
0
0
0
0
0
0
0
0
0
0
0
0
0
0
1.96095e+06
45.6296
0
0
0
0
0
0
0
0
0
0
0
0
0
0
0
0
0
43.0141
2.88119e+15
8.89322e+06
0
159.193
0.184885
41750.5
4.8654e+06
110.655
524.66
0
1.14988e+09
4.24218e+06
0
520.746
185.256
20911.1
0
0
0
4.30476e+06
9.50857e+20
1.6446e+21
5.80794e+14
7.05419e+15
0
1.05465e+16
5.69345e+16
2.5143e+17
1.29321e+18
6.63019e+17
2.11563e+19
1.18464e+19
2.92516e+17
3.70909e+17
5.90333e+16
1.11475e+17
9.46132e+15
4.56559e+16
2.0117e+15
3.74171e+22
8.81826e+23
1.56668e+25
2.41787e+24
2.80322e+24
1.64204e+24
2.22468e+24
8.78215e+23
2.05588e+24
3.47752e+23
9.513e+25
1.17059e+26
)
;

boundaryField
{
    fuel
    {
        type            zeroGradient;
    }
    wall
    {
        type            zeroGradient;
    }
    outlet
    {
        type            zeroGradient;
    }
    frontAndBack
    {
        type            empty;
    }
    procBoundary0to1
    {
        type            processor;
        value           nonuniform List<scalar> 
21
(
1.60163e+25
4.12872e+23
1.03762e+24
2.95228e+23
1.14529e+24
1.62953e+24
3.17883e+24
3.46415e+24
4.33998e+24
1.54626e+25
1.54626e+25
1.16495e+27
5.76486e+26
7.02064e+26
5.12156e+26
6.42659e+26
3.57006e+26
6.66135e+26
1.8786e+26
4.7615e+27
3.27432e+27
)
;
    }
    procBoundary0to2
    {
        type            processor;
        value           nonuniform List<scalar> 
12
(
0
971.806
0
0
0
0
0
0
0
0
0
0
)
;
    }
    procBoundary0to3
    {
        type            processor;
        value           uniform 0;
    }
}

)

diagonal:  Solving for moment.0.populationBalance, Initial residual = 0, Final residual = 0, No Iterations 0
diagonal:  Solving for moment.1.populationBalance, Initial residual = 0, Final residual = 0, No Iterations 0
diagonal:  Solving for moment.2.populationBalance, Initial residual = 0, Final residual = 0, No Iterations 0
diagonal:  Solving for moment.3.populationBalance, Initial residual = 0, Final residual = 0, No Iterations 0
diagonal:  Solving for moment.4.populationBalance, Initial residual = 0, Final residual = 0, No Iterations 0

5
(
dimensions      [0 -3 0 0 0 0 0];

internalField   nonuniform List<scalar> 
250
(
1.02684e+07
1.0293e+07
1.03154e+07
1.03164e+07
1.03402e+07
1.08212e+07
1.28273e+07
2.56794e+07
7.94426e+07
2.37759e+08
9.59697e+06
9.62088e+06
9.63552e+06
9.64122e+06
9.66461e+06
1.01026e+07
1.19226e+07
2.33425e+07
6.91736e+07
1.36926e+09
6.53756e+07
4.76738e+07
1.6961e+07
1.11709e+07
9.47274e+06
9.16153e+06
9.10895e+06
9.07821e+06
9.07731e+06
9.04801e+06
9.03487e+06
9.05601e+06
9.06595e+06
9.07508e+06
9.09878e+06
9.49577e+06
1.11468e+07
2.12346e+07
6.00255e+07
7.21172e+10
6.0363e+07
4.10533e+07
1.56646e+07
1.05306e+07
8.97367e+06
8.69099e+06
8.64169e+06
8.61105e+06
8.60941e+06
8.58393e+06
8.57384e+06
8.59112e+06
8.59899e+06
8.6098e+06
8.63432e+06
8.99296e+06
1.04916e+07
1.93581e+07
5.19631e+07
6.93596e+10
5.56319e+07
3.54134e+07
1.45808e+07
9.99861e+06
8.57333e+06
8.31398e+06
8.26753e+06
8.238e+06
8.23542e+06
8.21372e+06
8.20612e+06
8.21933e+06
8.22646e+06
8.2379e+06
8.2633e+06
8.58651e+06
9.94742e+06
1.77088e+07
4.49359e+07
7.95247e+12
5.12566e+07
3.14104e+07
1.36839e+07
9.56564e+06
8.26392e+06
8.02286e+06
7.97866e+06
7.95121e+06
7.94732e+06
7.92936e+06
7.92372e+06
7.93317e+06
7.94068e+06
7.9516e+06
7.9779e+06
8.26861e+06
9.50459e+06
1.62785e+07
3.92506e+07
2.29052e+13
4.72425e+07
2.81814e+07
1.29488e+07
9.22226e+06
8.03776e+06
7.81022e+06
7.76764e+06
7.74304e+06
7.7378e+06
7.72367e+06
7.71949e+06
7.72551e+06
7.73382e+06
7.7435e+06
7.77097e+06
8.03199e+06
9.15466e+06
1.50538e+07
3.44004e+07
1.02301e+17
4.35738e+07
2.55586e+07
1.23535e+07
8.95885e+06
7.8876e+06
7.66886e+06
7.6273e+06
7.60641e+06
7.59955e+06
7.58918e+06
7.58615e+06
7.58879e+06
7.59846e+06
7.60657e+06
7.63506e+06
7.86915e+06
8.88876e+06
1.40202e+07
3.02995e+07
5.82166e+16
4.02259e+07
2.3408e+07
1.18474e+07
8.77094e+06
7.79783e+06
7.58859e+06
7.55084e+06
7.53042e+06
7.5223e+06
7.51529e+06
7.51336e+06
7.516e+06
7.52396e+06
7.53066e+06
7.56025e+06
7.76939e+06
8.69848e+06
1.31632e+07
2.68539e+07
7.5008e+15
3.71644e+07
2.16278e+07
1.14413e+07
8.65054e+06
7.76835e+06
7.56844e+06
7.53156e+06
7.51488e+06
7.50501e+06
7.50154e+06
7.50022e+06
7.50066e+06
7.50968e+06
7.51455e+06
7.54512e+06
7.73232e+06
8.57613e+06
1.2396e+07
2.38382e+07
3.29969e+13
6.54958e+07
2.01384e+07
1.11419e+07
8.5899e+06
7.78967e+06
7.59975e+06
7.56392e+06
7.55069e+06
7.53932e+06
7.53901e+06
7.53808e+06
7.53658e+06
7.54668e+06
7.54985e+06
7.58119e+06
7.74889e+06
8.51464e+06
1.18196e+07
4.16478e+07
6.46436e+09
5.03443e+07
1.90952e+07
2.11715e+07
1.76369e+07
1.57936e+08
6.30251e+09
1.48508e+07
1.49207e+07
4.92128e+08
3.84559e+11
1.67024e+09
8.99285e+06
1.48152e+07
1.53999e+07
2.06028e+07
7.95601e+06
8.50795e+06
1.13626e+07
2.3908e+07
1.03339e+10
3.97885e+08
2.36671e+08
1.5407e+08
2.43014e+07
1.05382e+09
5.17473e+09
3.17364e+10
7.53008e+09
3.78409e+10
3.27301e+11
8.4215e+10
5.72024e+09
5.02245e+08
1.59947e+08
1.51306e+08
1.24264e+08
1.64214e+08
1.31555e+08
3.47344e+08
8.2701e+09
6.51312e+10
4.24081e+09
5.67474e+08
2.6477e+08
2.60864e+08
2.2893e+08
2.85364e+08
2.47488e+08
5.34227e+08
5.17156e+09
)
;

boundaryField
{
    fuel
    {
        type            zeroGradient;
    }
    wall
    {
        type            zeroGradient;
    }
    outlet
    {
        type            zeroGradient;
    }
    frontAndBack
    {
        type            empty;
    }
    procBoundary0to1
    {
        type            processor;
        value           nonuniform List<scalar> 
21
(
6.71418e+08
4.24958e+08
2.94133e+08
2.62226e+08
1.30594e+09
6.28813e+09
2.59904e+10
6.17464e+09
2.68287e+10
1.89367e+11
1.89367e+11
3.00105e+10
2.15857e+09
4.86034e+08
3.22782e+08
3.28985e+08
3.0247e+08
3.57066e+08
3.37381e+08
6.05601e+08
3.15343e+09
)
;
    }
    procBoundary0to2
    {
        type            processor;
        value           nonuniform List<scalar> 
12
(
1.02898e+07
7.76244e+07
5.54625e+07
1.85022e+07
1.19276e+07
1.00787e+07
9.73334e+06
9.67649e+06
9.64752e+06
9.64667e+06
9.61392e+06
9.61392e+06
)
;
    }
    procBoundary0to3
    {
        type            processor;
        value           nonuniform List<scalar> 10(1.10574e+07 1.10797e+07 1.11119e+07 1.11081e+07 1.11332e+07 1.16597e+07 1.38639e+07 2.86748e+07 9.08025e+07 5.13325e+08);
    }
}

dimensions      [0 0 0 0 0 0 0];

internalField   nonuniform List<scalar> 
250
(
7.27516e+06
7.29257e+06
7.30844e+06
7.3091e+06
7.32598e+06
7.66681e+06
9.08807e+06
1.81937e+07
5.62848e+07
1.0976e+08
6.79942e+06
6.81636e+06
6.82674e+06
6.83077e+06
6.84734e+06
7.15765e+06
8.44709e+06
1.65381e+07
4.90093e+07
1.14691e+08
4.63184e+07
3.37767e+07
1.20168e+07
7.91455e+06
6.71141e+06
6.49091e+06
6.45366e+06
6.43188e+06
6.43124e+06
6.41048e+06
6.40117e+06
6.41615e+06
6.42319e+06
6.42966e+06
6.44646e+06
6.72772e+06
7.89744e+06
1.50446e+07
4.25279e+07
1.3883e+10
4.2767e+07
2.90861e+07
1.10983e+07
7.46092e+06
6.35781e+06
6.15753e+06
6.12261e+06
6.1009e+06
6.09974e+06
6.08168e+06
6.07454e+06
6.08678e+06
6.09235e+06
6.10002e+06
6.11739e+06
6.37148e+06
7.43326e+06
1.37152e+07
3.68157e+07
1.11698e+10
3.9415e+07
2.50903e+07
1.03305e+07
7.08398e+06
6.07417e+06
5.89043e+06
5.85752e+06
5.83659e+06
5.83477e+06
5.81939e+06
5.81401e+06
5.82337e+06
5.82842e+06
5.83653e+06
5.85452e+06
6.08351e+06
7.04771e+06
1.25466e+07
3.18369e+07
9.43052e+11
3.63151e+07
2.22541e+07
9.69503e+06
6.77722e+06
5.85496e+06
5.68417e+06
5.65286e+06
5.6334e+06
5.63065e+06
5.61793e+06
5.61393e+06
5.62062e+06
5.62595e+06
5.63368e+06
5.65232e+06
5.85828e+06
6.73397e+06
1.15333e+07
2.78089e+07
2.50328e+12
3.34711e+07
1.99664e+07
9.17417e+06
6.53394e+06
5.69472e+06
5.53351e+06
5.50334e+06
5.48592e+06
5.48221e+06
5.47219e+06
5.46923e+06
5.4735e+06
5.47938e+06
5.48624e+06
5.50571e+06
5.69063e+06
6.48604e+06
1.06655e+07
2.43726e+07
1.32837e+16
3.08719e+07
1.81082e+07
8.75242e+06
6.34732e+06
5.58834e+06
5.43336e+06
5.40392e+06
5.38912e+06
5.38426e+06
5.37691e+06
5.37476e+06
5.37663e+06
5.38348e+06
5.38923e+06
5.40941e+06
5.57527e+06
6.29766e+06
9.93327e+06
2.14671e+07
9.89993e+15
2.84999e+07
1.65845e+07
8.39382e+06
6.21418e+06
5.52473e+06
5.37649e+06
5.34974e+06
5.33527e+06
5.32953e+06
5.32456e+06
5.32319e+06
5.32506e+06
5.3307e+06
5.33545e+06
5.35641e+06
5.50459e+06
6.16284e+06
9.32607e+06
1.90259e+07
1.43301e+15
2.63309e+07
1.53232e+07
8.1061e+06
6.12888e+06
5.50385e+06
5.36222e+06
5.33608e+06
5.32426e+06
5.31728e+06
5.31481e+06
5.31388e+06
5.31419e+06
5.32059e+06
5.32403e+06
5.34569e+06
5.47832e+06
6.07616e+06
8.78249e+06
1.68893e+07
5.59878e+11
2.53986e+07
1.4268e+07
7.894e+06
6.08591e+06
5.51895e+06
5.3844e+06
5.35901e+06
5.34964e+06
5.34158e+06
5.34136e+06
5.34071e+06
5.33964e+06
5.3468e+06
5.34905e+06
5.37125e+06
5.49006e+06
6.0326e+06
8.37415e+06
1.59515e+07
5.86942e+10
3.6243e+07
1.33887e+07
8.3594e+06
6.34779e+06
2.92577e+07
1.03746e+09
5.86088e+06
6.06192e+06
1.17123e+08
8.86807e+10
3.73949e+08
5.7025e+06
6.05873e+06
5.91198e+06
7.97623e+06
5.56411e+06
6.02785e+06
8.05034e+06
1.75372e+07
1.04032e+12
1.51322e+11
1.14929e+09
3.98476e+09
5.86829e+08
4.05956e+10
2.37951e+11
9.25839e+11
4.10052e+11
9.04205e+11
8.4822e+12
3.9801e+12
1.98608e+11
3.42496e+10
8.08238e+09
9.09111e+09
2.8747e+09
7.77021e+09
9.19245e+08
4.05851e+11
5.54463e+12
9.27648e+13
7.03419e+12
1.62609e+12
8.35873e+11
9.34483e+11
6.05771e+11
1.00352e+12
3.884e+11
4.35778e+12
1.53923e+13
)
;

boundaryField
{
    fuel
    {
        type            zeroGradient;
    }
    wall
    {
        type            zeroGradient;
    }
    outlet
    {
        type            zeroGradient;
    }
    frontAndBack
    {
        type            empty;
    }
    procBoundary0to1
    {
        type            processor;
        value           nonuniform List<scalar> 
21
(
2.76996e+12
7.13195e+11
8.40392e+11
6.37543e+11
2.82595e+12
1.31337e+13
4.78271e+13
1.32127e+13
3.53687e+13
1.8302e+14
1.8302e+14
1.9878e+14
1.69902e+13
6.83075e+12
4.94276e+12
5.54314e+12
4.14061e+12
6.03064e+12
3.1826e+12
1.51378e+13
2.91484e+13
)
;
    }
    procBoundary0to2
    {
        type            processor;
        value           nonuniform List<scalar> 
12
(
7.2903e+06
5.02283e+07
3.9295e+07
1.31088e+07
8.4507e+06
7.14075e+06
6.89603e+06
6.85576e+06
6.83524e+06
6.83464e+06
6.81143e+06
6.81143e+06
)
;
    }
    procBoundary0to3
    {
        type            processor;
        value           nonuniform List<scalar> 10(7.8341e+06 7.84994e+06 7.87277e+06 7.87003e+06 7.88786e+06 8.26086e+06 9.82255e+06 2.0316e+07 6.43333e+07 1.10617e+08);
    }
}

dimensions      [0 3 0 0 0 0 0];

internalField   nonuniform List<scalar> 
250
(
5.15442e+06
5.16676e+06
5.178e+06
5.17847e+06
5.19043e+06
5.43191e+06
6.43887e+06
1.28902e+07
3.98776e+07
7.00954e+07
4.81736e+06
4.82937e+06
4.83672e+06
4.83958e+06
4.85132e+06
5.07117e+06
5.98473e+06
1.17172e+07
3.47229e+07
6.59653e+07
3.28164e+07
2.39307e+07
8.51386e+06
5.60743e+06
4.75501e+06
4.59879e+06
4.5724e+06
4.55697e+06
4.55651e+06
4.5418e+06
4.53521e+06
4.54582e+06
4.55081e+06
4.55539e+06
4.56729e+06
4.76657e+06
5.59531e+06
1.06591e+07
3.01309e+07
2.71521e+09
3.03002e+07
2.06074e+07
7.86312e+06
5.28603e+06
4.50449e+06
4.36259e+06
4.33785e+06
4.32247e+06
4.32164e+06
4.30885e+06
4.30379e+06
4.31246e+06
4.31641e+06
4.32184e+06
4.33415e+06
4.51417e+06
5.26644e+06
9.71716e+06
2.60838e+07
1.86002e+09
2.79254e+07
1.77764e+07
7.3191e+06
5.01898e+06
4.30353e+06
4.17335e+06
4.15003e+06
4.13521e+06
4.13391e+06
4.12302e+06
4.11921e+06
4.12584e+06
4.12941e+06
4.13516e+06
4.14791e+06
4.31015e+06
4.99328e+06
8.88926e+06
2.25563e+07
1.11877e+11
2.57292e+07
1.5767e+07
6.8689e+06
4.80164e+06
4.14822e+06
4.02721e+06
4.00503e+06
3.99125e+06
3.9893e+06
3.98028e+06
3.97745e+06
3.98219e+06
3.98596e+06
3.99145e+06
4.00465e+06
4.15057e+06
4.771e+06
8.17127e+06
1.97025e+07
2.73794e+11
2.37142e+07
1.41461e+07
6.49987e+06
4.62927e+06
4.03469e+06
3.92048e+06
3.8991e+06
3.88675e+06
3.88412e+06
3.87703e+06
3.87493e+06
3.87796e+06
3.88212e+06
3.88698e+06
3.90077e+06
4.03179e+06
4.59534e+06
7.5565e+06
1.72679e+07
1.72894e+15
2.18726e+07
1.28296e+07
6.20106e+06
4.49705e+06
3.95932e+06
3.84952e+06
3.82866e+06
3.81817e+06
3.81473e+06
3.80952e+06
3.808e+06
3.80933e+06
3.81418e+06
3.81825e+06
3.83255e+06
3.95006e+06
4.46187e+06
7.03769e+06
1.52094e+07
1.7442e+15
2.01921e+07
1.17501e+07
5.94699e+06
4.40273e+06
3.91425e+06
3.80922e+06
3.79027e+06
3.78002e+06
3.77595e+06
3.77243e+06
3.77146e+06
3.77279e+06
3.77678e+06
3.78015e+06
3.795e+06
3.89998e+06
4.36635e+06
6.60749e+06
1.34798e+07
2.79147e+14
1.86553e+07
1.08564e+07
5.74314e+06
4.34229e+06
3.89946e+06
3.79911e+06
3.7806e+06
3.77222e+06
3.76727e+06
3.76553e+06
3.76486e+06
3.76509e+06
3.76962e+06
3.77206e+06
3.7874e+06
3.88137e+06
4.30494e+06
6.22236e+06
1.1966e+07
9.53114e+09
1.72818e+07
1.01088e+07
5.59287e+06
4.31185e+06
3.91016e+06
3.81483e+06
3.79684e+06
3.7902e+06
3.78449e+06
3.78434e+06
3.78387e+06
3.78312e+06
3.78819e+06
3.78978e+06
3.80551e+06
3.88969e+06
4.27407e+06
5.93306e+06
1.07914e+07
1.06246e+12
2.74189e+07
9.4772e+06
5.51707e+06
4.33529e+06
7.68943e+06
1.73053e+08
3.86407e+06
3.89097e+06
2.9588e+07
2.04518e+10
8.55211e+07
3.89193e+06
3.88923e+06
3.86622e+06
4.34938e+06
3.92779e+06
4.27071e+06
5.70364e+06
1.35938e+07
4.6786e+14
2.03692e+14
5.0086e+10
3.19338e+11
3.07749e+10
2.1636e+12
1.37106e+13
5.43412e+13
5.20731e+13
7.13462e+13
9.93242e+14
4.95086e+14
1.8059e+13
4.83174e+12
1.05671e+12
1.46663e+12
2.50473e+11
9.78626e+11
8.14026e+10
1.286e+15
1.29186e+16
4.05334e+17
2.87445e+16
1.20366e+16
7.1266e+15
8.75369e+15
4.64377e+15
9.00905e+15
2.32602e+15
8.54169e+16
1.31231e+17
)
;

boundaryField
{
    fuel
    {
        type            zeroGradient;
    }
    wall
    {
        type            zeroGradient;
    }
    outlet
    {
        type            zeroGradient;
    }
    frontAndBack
    {
        type            empty;
    }
    procBoundary0to1
    {
        type            processor;
        value           nonuniform List<scalar> 
21
(
3.30728e+16
3.97351e+15
6.45954e+15
3.34748e+15
1.25804e+16
4.52129e+16
1.5637e+17
5.85177e+16
1.41945e+17
6.34255e+17
6.34255e+17
2.40008e+18
3.03053e+17
2.25911e+17
1.72402e+17
2.04859e+17
1.34171e+17
2.20494e+17
8.4862e+16
7.90202e+17
7.35809e+17
)
;
    }
    procBoundary0to2
    {
        type            processor;
        value           nonuniform List<scalar> 
12
(
5.16515e+06
3.54474e+07
2.78404e+07
9.28751e+06
5.98729e+06
5.05919e+06
4.88582e+06
4.85728e+06
4.84274e+06
4.84232e+06
4.82587e+06
4.82587e+06
)
;
    }
    procBoundary0to3
    {
        type            processor;
        value           nonuniform List<scalar> 10(5.55043e+06 5.56165e+06 5.57783e+06 5.57589e+06 5.58852e+06 5.85279e+06 6.95924e+06 1.43938e+07 4.55799e+07 7.20609e+07);
    }
}

dimensions      [0 6 0 0 0 0 0];

internalField   nonuniform List<scalar> 
250
(
3.65189e+06
3.66063e+06
3.6686e+06
3.66893e+06
3.6774e+06
3.84849e+06
4.56191e+06
9.13266e+06
2.82531e+07
4.86592e+07
3.41309e+06
3.42159e+06
3.4268e+06
3.42883e+06
3.43714e+06
3.59291e+06
4.24016e+06
8.30157e+06
2.46011e+07
4.57203e+07
2.32503e+07
1.69548e+07
6.03204e+06
3.97284e+06
3.36891e+06
3.25823e+06
3.23953e+06
3.2286e+06
3.22827e+06
3.21785e+06
3.21318e+06
3.2207e+06
3.22423e+06
3.22748e+06
3.23591e+06
3.3771e+06
3.96426e+06
7.55191e+06
2.13476e+07
5.53324e+08
2.14676e+07
1.46003e+07
5.57099e+06
3.74514e+06
3.19141e+06
3.09088e+06
3.07335e+06
3.06245e+06
3.06187e+06
3.05281e+06
3.04922e+06
3.05536e+06
3.05816e+06
3.06201e+06
3.07073e+06
3.19827e+06
3.73125e+06
6.88457e+06
1.84803e+07
3.37368e+08
1.97851e+07
1.25945e+07
5.18556e+06
3.55593e+06
3.04904e+06
2.9568e+06
2.94028e+06
2.92978e+06
2.92886e+06
2.92114e+06
2.91844e+06
2.92314e+06
2.92567e+06
2.92975e+06
2.93878e+06
3.05372e+06
3.53772e+06
6.29801e+06
1.59811e+07
1.32979e+10
1.8229e+07
1.11709e+07
4.86659e+06
3.40194e+06
2.939e+06
2.85327e+06
2.83755e+06
2.82779e+06
2.8264e+06
2.82002e+06
2.81801e+06
2.82137e+06
2.82404e+06
2.82793e+06
2.83728e+06
2.94067e+06
3.38023e+06
5.78932e+06
1.39592e+07
2.99894e+10
1.68014e+07
1.00225e+07
4.60513e+06
3.27982e+06
2.85856e+06
2.77764e+06
2.7625e+06
2.75375e+06
2.75189e+06
2.74686e+06
2.74537e+06
2.74752e+06
2.75047e+06
2.75391e+06
2.76369e+06
2.85651e+06
3.25578e+06
5.35375e+06
1.22342e+07
2.26076e+14
1.54967e+07
9.08972e+06
4.39343e+06
3.18615e+06
2.80516e+06
2.72737e+06
2.71259e+06
2.70516e+06
2.70272e+06
2.69903e+06
2.69796e+06
2.69889e+06
2.70233e+06
2.70522e+06
2.71535e+06
2.7986e+06
3.16122e+06
4.98618e+06
1.07758e+07
3.16638e+14
1.4306e+07
8.32488e+06
4.21342e+06
3.11932e+06
2.77324e+06
2.69882e+06
2.6854e+06
2.67813e+06
2.67525e+06
2.67275e+06
2.67207e+06
2.67301e+06
2.67584e+06
2.67822e+06
2.68874e+06
2.76312e+06
3.09355e+06
4.68138e+06
9.55038e+06
5.44702e+13
1.32172e+07
7.69175e+06
4.069e+06
3.0765e+06
2.76275e+06
2.69166e+06
2.67854e+06
2.67261e+06
2.6691e+06
2.66786e+06
2.66739e+06
2.66755e+06
2.67076e+06
2.67249e+06
2.68336e+06
2.74994e+06
3.05003e+06
4.40852e+06
8.47786e+06
1.8237e+08
1.22199e+07
7.16207e+06
3.96253e+06
3.05493e+06
2.77033e+06
2.70279e+06
2.69005e+06
2.68534e+06
2.6813e+06
2.68119e+06
2.68086e+06
2.68033e+06
2.68392e+06
2.68505e+06
2.69619e+06
2.75583e+06
3.02817e+06
4.20355e+06
7.62649e+06
4.186e+13
2.0931e+07
6.71403e+06
3.88382e+06
3.0563e+06
3.38728e+06
3.04704e+07
2.71981e+06
2.71998e+06
8.6508e+06
4.7179e+09
2.08198e+07
2.72455e+06
2.71884e+06
2.71654e+06
2.82469e+06
2.77998e+06
3.02579e+06
4.04101e+06
1.08568e+07
4.72657e+17
4.97031e+17
5.15618e+12
4.19276e+13
1.96665e+12
1.37907e+14
8.45277e+14
3.47891e+15
7.52387e+15
6.40382e+15
1.32481e+17
7.25476e+16
2.08131e+15
1.11249e+15
2.20129e+14
3.63144e+14
4.34193e+13
1.89289e+14
1.28599e+13
6.22251e+18
7.24073e+19
2.21059e+21
2.0716e+20
1.57893e+20
9.63359e+19
1.25221e+20
5.6992e+19
1.22175e+20
2.53445e+19
2.54024e+21
2.8346e+21
)
;

boundaryField
{
    fuel
    {
        type            zeroGradient;
    }
    wall
    {
        type            zeroGradient;
    }
    outlet
    {
        type            zeroGradient;
    }
    frontAndBack
    {
        type            empty;
    }
    procBoundary0to1
    {
        type            processor;
        value           nonuniform List<scalar> 
21
(
6.74218e+20
3.83085e+19
7.81196e+19
2.92623e+19
1.0389e+20
2.36039e+20
6.6752e+20
3.93972e+20
7.42019e+20
2.94543e+21
2.94543e+21
4.55802e+22
1.14161e+22
1.20205e+22
9.05886e+21
1.11213e+22
6.65078e+21
1.17617e+22
3.79023e+21
5.93784e+22
4.21556e+22
)
;
    }
    procBoundary0to2
    {
        type            processor;
        value           nonuniform List<scalar> 
12
(
3.65949e+06
2.51103e+07
1.97248e+07
6.58017e+06
4.24197e+06
3.58442e+06
3.46158e+06
3.44137e+06
3.43107e+06
3.43076e+06
3.41911e+06
3.41911e+06
)
;
    }
    procBoundary0to3
    {
        type            processor;
        value           nonuniform List<scalar> 10(3.93246e+06 3.94041e+06 3.95188e+06 3.9505e+06 3.95945e+06 4.14668e+06 4.9306e+06 1.0198e+07 3.22932e+07 5.06795e+07);
    }
}

dimensions      [0 9 0 0 0 0 0];

internalField   nonuniform List<scalar> 
250
(
2.58735e+06
2.59354e+06
2.59919e+06
2.59942e+06
2.60543e+06
2.72664e+06
3.2321e+06
6.47046e+06
2.00172e+07
3.43437e+07
2.41816e+06
2.42419e+06
2.42787e+06
2.42931e+06
2.4352e+06
2.54556e+06
3.00414e+06
5.88164e+06
1.74298e+07
3.22834e+07
1.64728e+07
1.20124e+07
4.27368e+06
2.81475e+06
2.38686e+06
2.30844e+06
2.29519e+06
2.28745e+06
2.28722e+06
2.27984e+06
2.27653e+06
2.28185e+06
2.28436e+06
2.28666e+06
2.29263e+06
2.39266e+06
2.80866e+06
5.35051e+06
1.51247e+07
1.28219e+08
1.52097e+07
1.03443e+07
3.94703e+06
2.65342e+06
2.26111e+06
2.18988e+06
2.17746e+06
2.16974e+06
2.16932e+06
2.1629e+06
2.16036e+06
2.16472e+06
2.1667e+06
2.16942e+06
2.1756e+06
2.26597e+06
2.64358e+06
4.8777e+06
1.30932e+07
7.75109e+07
1.40176e+07
8.92316e+06
3.67395e+06
2.51936e+06
2.16023e+06
2.09488e+06
2.08318e+06
2.07574e+06
2.07509e+06
2.06962e+06
2.06771e+06
2.07103e+06
2.07283e+06
2.07571e+06
2.08211e+06
2.16355e+06
2.50646e+06
4.46212e+06
1.13225e+07
1.59777e+09
1.29152e+07
7.91451e+06
3.44796e+06
2.41027e+06
2.08227e+06
2.02153e+06
2.01039e+06
2.00348e+06
2.0025e+06
1.99797e+06
1.99655e+06
1.99893e+06
2.00082e+06
2.00358e+06
2.0102e+06
2.08345e+06
2.39488e+06
4.10171e+06
9.89001e+06
3.30289e+09
1.19037e+07
7.10089e+06
3.26272e+06
2.32374e+06
2.02528e+06
1.96795e+06
1.95722e+06
1.95102e+06
1.9497e+06
1.94614e+06
1.94509e+06
1.94661e+06
1.9487e+06
1.95114e+06
1.95806e+06
2.02383e+06
2.30671e+06
3.79312e+06
8.66792e+06
2.98314e+13
1.09793e+07
6.44003e+06
3.11273e+06
2.25737e+06
1.98745e+06
1.93233e+06
1.92186e+06
1.9166e+06
1.91487e+06
1.91226e+06
1.91149e+06
1.91216e+06
1.91459e+06
1.91664e+06
1.92382e+06
1.9828e+06
2.23971e+06
3.53269e+06
7.6346e+06
5.89415e+13
1.01358e+07
5.89815e+06
2.98519e+06
2.21003e+06
1.96483e+06
1.91211e+06
1.90259e+06
1.89745e+06
1.8954e+06
1.89364e+06
1.89315e+06
1.89381e+06
1.89582e+06
1.89751e+06
1.90497e+06
1.95766e+06
2.19177e+06
3.31674e+06
6.76641e+06
1.06304e+13
9.36436e+06
5.44958e+06
2.88287e+06
2.17969e+06
1.9574e+06
1.90703e+06
1.89774e+06
1.89353e+06
1.89105e+06
1.89017e+06
1.88984e+06
1.88995e+06
1.89222e+06
1.89345e+06
1.90115e+06
1.94832e+06
2.16094e+06
3.12342e+06
6.00654e+06
1.67968e+07
8.65691e+06
5.0743e+06
2.80744e+06
2.16441e+06
1.96277e+06
1.91492e+06
1.90589e+06
1.90256e+06
1.89969e+06
1.89961e+06
1.89938e+06
1.899e+06
1.90155e+06
1.90235e+06
1.91024e+06
1.9525e+06
2.14545e+06
2.9782e+06
5.40262e+06
2.39949e+15
1.60949e+07
4.75683e+06
2.75013e+06
2.16318e+06
2.07373e+06
6.48243e+06
1.92587e+06
1.92375e+06
3.28994e+06
1.08921e+09
5.93471e+06
1.92305e+06
1.92296e+06
1.92306e+06
1.95056e+06
1.96905e+06
2.14376e+06
2.86304e+06
8.96747e+06
8.00619e+20
1.50142e+21
6.70805e+14
6.56461e+15
1.51611e+14
1.0525e+16
5.57511e+16
2.4457e+17
1.22409e+18
6.52037e+17
2.00807e+19
1.12521e+19
2.85839e+17
3.51778e+17
5.75314e+16
1.05475e+17
9.93268e+15
4.312e+16
2.48723e+15
3.53923e+22
7.51539e+23
1.49382e+25
2.30697e+24
2.66966e+24
1.56357e+24
2.11714e+24
8.40645e+23
1.95494e+24
3.44963e+23
9.01848e+25
1.02752e+26
)
;

boundaryField
{
    fuel
    {
        type            zeroGradient;
    }
    wall
    {
        type            zeroGradient;
    }
    outlet
    {
        type            zeroGradient;
    }
    frontAndBack
    {
        type            empty;
    }
    procBoundary0to1
    {
        type            processor;
        value           nonuniform List<scalar> 
21
(
1.71879e+25
4.59807e+23
1.13579e+24
3.35247e+23
1.28113e+24
1.8766e+24
3.72536e+24
3.94643e+24
5.04275e+24
1.82528e+25
1.82528e+25
1.3549e+27
6.44542e+26
7.83629e+26
5.7028e+26
7.16959e+26
3.97158e+26
7.43157e+26
2.10018e+26
5.29671e+27
3.49763e+27
)
;
    }
    procBoundary0to2
    {
        type            processor;
        value           nonuniform List<scalar> 
12
(
2.59274e+06
1.77904e+07
1.3975e+07
4.66202e+06
3.00542e+06
2.53955e+06
2.45252e+06
2.4382e+06
2.4309e+06
2.43068e+06
2.42243e+06
2.42243e+06
)
;
    }
    procBoundary0to3
    {
        type            processor;
        value           nonuniform List<scalar> 10(2.78613e+06 2.79177e+06 2.79989e+06 2.79892e+06 2.80525e+06 2.93791e+06 3.49331e+06 7.22522e+06 2.28796e+07 3.58668e+07);
    }
}

)


5
(
dimensions      [0 -3 0 0 0 0 0];

internalField   nonuniform List<scalar> 
250
(
0
0
0
0
0
0
0
0
0
1.25015e+10
0
0
0
0
0
0
0
0
0
6.44366e+09
6.53756e+07
0
0
0
0
0
0
0
0
0
0
0
0
0
0
0
0
0
0
6.38842e+11
6.0363e+07
0
0
0
0
0
0
0
0
0
0
0
0
0
0
0
0
0
0
5.38034e+11
0
0
0
0
0
0
0
0
0
0
0
0
0
0
0
0
0
0
0
8.33775e+13
1.09601e-08
0
0
0
0
0
0
0
0
0
0
0
0
0
0
0
0
0
0
4.18112e+14
0
0
0
0
0
0
0
0
0
0
0
0
0
0
0
0
0
0
0
3.03025e+13
4.35738e+07
0
0
0
0
0
0
0
0
0
0
0
0
0
0
0
0
0
0
4.97671e+17
4.02259e+07
0
0
0
0
0
0
0
0
0
0
0
0
0
0
0
0
0
2.68539e+07
0
3.71644e+07
0
0
0
0
0
0
0
0
0
0
0
0
0
0
0
0
0
2.38382e+07
3.04071e-05
6.54958e+07
2.01384e+07
1.11419e+07
8.5899e+06
7.78967e+06
7.59975e+06
7.56392e+06
7.55069e+06
7.53932e+06
7.53901e+06
7.53808e+06
7.53658e+06
7.54668e+06
7.54985e+06
7.58119e+06
7.74889e+06
8.51464e+06
1.18196e+07
[...]
7.7435e+06
7.77097e+06
8.03199e+06
9.15466e+06
1.50538e+07
3.44004e+07
6.9195e+17
4.35738e+07
2.55586e+07
1.23535e+07
8.95885e+06
7.8876e+06
7.66886e+06
7.6273e+06
7.60641e+06
7.59955e+06
7.58918e+06
7.58615e+06
7.58879e+06
7.59846e+06
7.60657e+06
7.63506e+06
7.86915e+06
8.88876e+06
1.40202e+07
3.02995e+07
-6.5147e+18
4.02259e+07
2.3408e+07
1.18474e+07
8.77094e+06
7.79783e+06
7.58859e+06
7.55084e+06
7.53042e+06
7.5223e+06
7.51529e+06
7.51336e+06
7.516e+06
7.52396e+06
7.53066e+06
7.56025e+06
7.76939e+06
8.69848e+06
1.31632e+07
2.68539e+07
1.02881e+19
3.71644e+07
2.16278e+07
1.14413e+07
8.65054e+06
7.76835e+06
7.56844e+06
7.53156e+06
7.51488e+06
7.50501e+06
7.50154e+06
7.50022e+06
7.50066e+06
7.50968e+06
7.51455e+06
7.54512e+06
7.73232e+06
8.57613e+06
1.2396e+07
2.38382e+07
4.93613e+07
6.54958e+07
2.01384e+07
1.11419e+07
8.5899e+06
7.78967e+06
7.59975e+06
7.56392e+06
7.55069e+06
7.53932e+06
7.53901e+06
7.53808e+06
7.53658e+06
7.54668e+06
7.54985e+06
7.58119e+06
7.74889e+06
8.51464e+06
1.18196e+07
4.16478e+07
4.89408e+13
4.84788e+07
3.62161e+07
4.66173e+09
2.62693e+11
7.85677e+06
2.59737e+09
2.63857e+11
1.18802e+07
1.44077e+09
3.84138e+11
1.13053e+11
1.11096e+10
5.53962e+07
1.5443e+07
1.67048e+07
7.91457e+06
8.50798e+06
1.13626e+07
2.39529e+07
1.61239e+13
4.02967e+08
2.40722e+08
2.20022e+08
2.03252e+10
2.52201e+09
4.88515e+09
3.83493e+10
8.79327e+09
4.58709e+10
3.50714e+11
7.17588e+10
5.18789e+09
5.16554e+08
1.69917e+08
1.57189e+08
1.27277e+08
1.69478e+08
1.33086e+08
3.58595e+08
1.22893e+12
6.88247e+10
4.79898e+09
6.83883e+08
2.90206e+08
2.79392e+08
2.40925e+08
3.0435e+08
2.55998e+08
5.68551e+08
6.37656e+09
)
;

boundaryField
{
    fuel
    {
        type            zeroGradient;
    }
    wall
    {
        type            zeroGradient;
    }
    outlet
    {
        type            zeroGradient;
    }
    frontAndBack
    {
        type            empty;
    }
    procBoundary0to1
    {
        type            processor;
        value           nonuniform List<scalar> 
21
(
6.94669e+08
4.40739e+08
3.14174e+08
5.42625e+08
1.78204e+09
7.02577e+09
2.58559e+10
7.1159e+09
3.18045e+10
2.31259e+11
2.31259e+11
3.97265e+10
2.93646e+09
6.09984e+08
3.60699e+08
3.62613e+08
3.27774e+08
3.92591e+08
3.58137e+08
6.62486e+08
4.2978e+09
)
;
    }
    procBoundary0to2
    {
        type            processor;
        value           nonuniform List<scalar> 
12
(
1.02898e+07
7.76244e+07
5.54625e+07
1.85022e+07
1.19276e+07
1.00787e+07
9.73334e+06
9.67649e+06
9.64752e+06
9.64667e+06
9.61392e+06
9.61392e+06
)
;
    }
    procBoundary0to3
    {
        type            processor;
        value           nonuniform List<scalar> 10(1.10574e+07 1.10797e+07 1.11119e+07 1.11081e+07 1.11332e+07 1.16597e+07 1.38639e+07 2.86748e+07 9.08025e+07 5.24686e+08);
    }
}

dimensions      [0 0 0 0 0 0 0];

internalField   nonuniform List<scalar> 
250
(
7.27516e+06
7.29257e+06
7.30844e+06
7.3091e+06
7.32598e+06
7.66681e+06
9.08807e+06
1.81937e+07
5.62848e+07
1.0976e+08
6.79942e+06
6.81636e+06
6.82674e+06
6.83077e+06
6.84734e+06
7.15765e+06
8.44709e+06
1.65381e+07
4.90093e+07
1.04982e+08
4.63184e+07
3.37767e+07
1.20168e+07
7.91455e+06
6.71141e+06
6.49091e+06
6.45366e+06
6.43188e+06
6.43124e+06
6.41048e+06
6.40117e+06
6.41615e+06
6.42319e+06
6.42966e+06
6.44646e+06
6.72772e+06
7.89744e+06
1.50446e+07
4.25279e+07
9.36195e+07
4.2767e+07
2.90861e+07
1.10983e+07
7.46092e+06
6.35781e+06
6.15753e+06
6.12261e+06
6.1009e+06
6.09974e+06
6.08168e+06
6.07454e+06
6.08678e+06
6.09235e+06
6.10002e+06
6.11739e+06
6.37148e+06
7.43326e+06
1.37152e+07
3.68157e+07
8.23141e+07
3.9415e+07
2.50903e+07
1.03305e+07
7.08398e+06
6.07417e+06
5.89043e+06
5.85752e+06
5.83659e+06
5.83477e+06
5.81939e+06
5.81401e+06
5.82337e+06
5.82842e+06
5.83653e+06
5.85452e+06
6.08351e+06
7.04771e+06
1.25466e+07
3.18369e+07
1.26741e+09
3.63151e+07
2.22541e+07
9.69503e+06
6.77722e+06
5.85496e+06
5.68417e+06
5.65286e+06
5.6334e+06
5.63065e+06
5.61793e+06
5.61393e+06
5.62062e+06
5.62595e+06
5.63368e+06
5.65232e+06
5.85828e+06
6.73397e+06
1.15333e+07
2.78089e+07
3.58584e+08
3.34711e+07
1.99664e+07
9.17417e+06
6.53394e+06
5.69472e+06
5.53351e+06
5.50334e+06
5.48592e+06
5.48221e+06
5.47219e+06
5.46923e+06
5.4735e+06
5.47938e+06
5.48624e+06
5.50571e+06
5.69063e+06
6.48604e+06
1.06655e+07
2.43726e+07
6.37603e+14
3.08719e+07
1.81082e+07
8.75242e+06
6.34732e+06
5.58834e+06
5.43336e+06
5.40392e+06
5.38912e+06
5.38426e+06
5.37691e+06
5.37476e+06
5.37663e+06
5.38348e+06
5.38923e+06
5.40941e+06
5.57527e+06
6.29766e+06
9.93327e+06
2.14671e+07
9.8323e+18
2.84999e+07
1.65845e+07
8.39382e+06
6.21418e+06
5.52473e+06
5.37649e+06
5.34974e+06
5.33527e+06
5.32953e+06
5.32456e+06
5.32319e+06
5.32506e+06
5.3307e+06
5.33545e+06
5.35641e+06
5.50459e+06
6.16284e+06
9.32607e+06
1.90259e+07
2.00785e+18
2.63309e+07
1.53232e+07
8.1061e+06
6.12888e+06
5.50385e+06
5.36222e+06
5.33608e+06
5.32426e+06
5.31728e+06
5.31481e+06
5.31388e+06
5.31419e+06
5.32059e+06
5.32403e+06
5.34569e+06
5.47832e+06
6.07616e+06
8.78249e+06
1.68893e+07
3.49723e+07
2.53986e+07
1.4268e+07
7.894e+06
6.08591e+06
5.51895e+06
5.3844e+06
5.35901e+06
5.34964e+06
5.34158e+06
5.34136e+06
5.34071e+06
5.33964e+06
5.3468e+06
5.34905e+06
5.37125e+06
5.49006e+06
6.0326e+06
8.37415e+06
1.59515e+07
2.80379e+13
3.43462e+07
1.39734e+07
2.83401e+08
1.55747e+10
5.5665e+06
4.33914e+08
4.36602e+10
7.85199e+06
6.63199e+08
8.85835e+10
2.50639e+10
2.15673e+09
1.47014e+07
5.9116e+06
6.00695e+06
5.54255e+06
6.02786e+06
8.05034e+06
1.75833e+07
1.69445e+13
1.85936e+11
1.39643e+09
4.9531e+09
8.93425e+09
6.74222e+10
3.39937e+11
1.11421e+12
5.62869e+11
1.21215e+12
1.19961e+13
5.62876e+12
2.9187e+11
5.28757e+10
1.14176e+10
1.20163e+10
3.72224e+09
1.00549e+10
1.22407e+09
5.48208e+11
9.69513e+12
1.49394e+14
1.23644e+13
2.73548e+12
1.22705e+12
1.3395e+12
8.45921e+11
1.43274e+12
5.33737e+11
6.21559e+12
2.48623e+13
)
;

boundaryField
{
    fuel
    {
        type            zeroGradient;
    }
    wall
    {
        type            zeroGradient;
    }
    outlet
    {
        type            zeroGradient;
    }
    frontAndBack
    {
        type            empty;
    }
    procBoundary0to1
    {
        type            processor;
        value           nonuniform List<scalar> 
21
(
3.63642e+12
9.70354e+11
1.19538e+12
1.17267e+12
5.63937e+12
2.34766e+13
7.11446e+13
2.201e+13
5.58763e+13
3.15571e+14
3.15571e+14
3.96723e+14
3.39327e+13
1.14669e+13
7.4521e+12
8.31512e+12
6.06107e+12
9.03914e+12
4.53232e+12
2.25734e+13
4.99681e+13
)
;
    }
    procBoundary0to2
    {
        type            processor;
        value           nonuniform List<scalar> 
12
(
7.2903e+06
5.02283e+07
3.9295e+07
1.31088e+07
8.4507e+06
7.14075e+06
6.89603e+06
6.85576e+06
6.83524e+06
6.83464e+06
6.81143e+06
6.81143e+06
)
;
    }
    procBoundary0to3
    {
        type            processor;
        value           nonuniform List<scalar> 10(7.8341e+06 7.84994e+06 7.87277e+06 7.87003e+06 7.88786e+06 8.26086e+06 9.82255e+06 2.0316e+07 6.43333e+07 1.108e+08);
    }
}

dimensions      [0 3 0 0 0 0 0];

internalField   nonuniform List<scalar> 
250
(
5.15442e+06
5.16676e+06
5.178e+06
5.17847e+06
5.19043e+06
5.43191e+06
6.43887e+06
1.28902e+07
3.98776e+07
7.00954e+07
4.81736e+06
4.82937e+06
4.83672e+06
4.83958e+06
4.85132e+06
5.07117e+06
5.98473e+06
1.17172e+07
3.47229e+07
6.58806e+07
3.28164e+07
2.39307e+07
8.51386e+06
5.60743e+06
4.75501e+06
4.59879e+06
4.5724e+06
4.55697e+06
4.55651e+06
4.5418e+06
4.53521e+06
4.54582e+06
4.55081e+06
4.55539e+06
4.56729e+06
4.76657e+06
5.59531e+06
1.06591e+07
3.01309e+07
6.01864e+07
3.03002e+07
2.06074e+07
7.86312e+06
5.28603e+06
4.50449e+06
4.36259e+06
4.33785e+06
4.32247e+06
4.32164e+06
4.30885e+06
4.30379e+06
4.31246e+06
4.31641e+06
4.32184e+06
4.33415e+06
4.51417e+06
5.26644e+06
9.71716e+06
2.60838e+07
5.42832e+07
2.79254e+07
1.77764e+07
7.3191e+06
5.01898e+06
4.30353e+06
4.17335e+06
4.15003e+06
4.13521e+06
4.13391e+06
4.12302e+06
4.11921e+06
4.12584e+06
4.12941e+06
4.13516e+06
4.14791e+06
4.31015e+06
4.99328e+06
8.88926e+06
2.25563e+07
1.90716e+08
2.57292e+07
1.5767e+07
6.8689e+06
4.80164e+06
4.14822e+06
4.02721e+06
4.00503e+06
3.99125e+06
3.9893e+06
3.98028e+06
3.97745e+06
3.98219e+06
3.98596e+06
3.99145e+06
4.00465e+06
4.15057e+06
4.771e+06
8.17127e+06
1.97025e+07
7.83368e+07
2.37142e+07
1.41461e+07
6.49987e+06
4.62927e+06
4.03469e+06
3.92048e+06
3.8991e+06
3.88675e+06
3.88412e+06
3.87703e+06
3.87493e+06
3.87796e+06
3.88212e+06
3.88698e+06
3.90077e+06
4.03179e+06
4.59534e+06
7.5565e+06
1.72679e+07
5.96752e+11
2.18726e+07
1.28296e+07
6.20106e+06
4.49705e+06
3.95932e+06
3.84952e+06
3.82866e+06
3.81817e+06
3.81473e+06
3.80952e+06
3.808e+06
3.80933e+06
3.81418e+06
3.81825e+06
3.83255e+06
3.95006e+06
4.46187e+06
7.03769e+06
1.52094e+07
6.26457e+18
2.01921e+07
1.17501e+07
5.94699e+06
4.40273e+06
3.91425e+06
3.80922e+06
3.79027e+06
3.78002e+06
3.77595e+06
3.77243e+06
3.77146e+06
3.77279e+06
3.77678e+06
3.78015e+06
3.795e+06
3.89998e+06
4.36635e+06
6.60749e+06
1.34798e+07
3.91858e+17
1.86553e+07
1.08564e+07
5.74314e+06
4.34229e+06
3.89946e+06
3.79911e+06
3.7806e+06
3.77222e+06
3.76727e+06
3.76553e+06
3.76486e+06
3.76509e+06
3.76962e+06
3.77206e+06
3.7874e+06
3.88137e+06
4.30494e+06
6.22236e+06
1.1966e+07
2.47777e+07
1.72818e+07
1.01088e+07
5.59287e+06
4.31185e+06
3.91016e+06
3.81483e+06
3.79684e+06
3.7902e+06
3.78449e+06
3.78434e+06
3.78387e+06
3.78312e+06
3.78819e+06
3.78978e+06
3.80551e+06
3.88969e+06
4.27407e+06
5.93306e+06
1.07914e+07
1.79283e+13
2.58145e+07
9.49717e+06
2.18182e+07
9.27024e+08
3.94384e+06
7.47464e+07
7.22669e+09
5.23792e+06
3.43868e+08
2.04294e+10
5.55848e+09
4.20782e+08
5.64009e+06
3.86645e+06
3.89223e+06
3.92276e+06
4.27071e+06
5.70364e+06
1.36411e+07
8.31313e+14
3.25296e+14
8.33068e+10
4.94555e+11
9.9094e+10
5.83938e+12
3.26737e+13
1.10242e+14
1.13681e+14
1.5697e+14
2.33448e+15
1.08495e+15
4.2055e+13
1.05807e+13
2.03404e+12
2.57518e+12
4.47611e+11
1.67575e+12
1.49229e+11
2.39413e+15
2.57149e+16
1.11987e+18
7.98281e+16
2.74394e+16
1.43586e+16
1.74264e+16
9.0362e+15
1.79067e+16
4.54782e+15
1.69601e+17
2.75887e+17
)
;

boundaryField
{
    fuel
    {
        type            zeroGradient;
    }
    wall
    {
        type            zeroGradient;
    }
    outlet
    {
        type            zeroGradient;
    }
    frontAndBack
    {
        type            empty;
    }
    procBoundary0to1
    {
        type            processor;
        value           nonuniform List<scalar> 
21
(
5.81637e+16
7.51138e+15
1.25182e+16
8.43095e+15
3.74468e+16
1.43028e+17
4.32582e+17
1.63199e+17
3.87644e+17
1.93064e+18
1.93064e+18
8.12929e+18
8.37819e+17
5.02686e+17
3.59797e+17
4.29758e+17
2.74461e+17
4.62722e+17
1.70287e+17
1.64927e+18
1.5631e+18
)
;
    }
    procBoundary0to2
    {
        type            processor;
        value           nonuniform List<scalar> 
12
(
5.16515e+06
3.54474e+07
2.78404e+07
9.28751e+06
5.98729e+06
5.05919e+06
4.88582e+06
4.85728e+06
4.84274e+06
4.84232e+06
4.82587e+06
4.82587e+06
)
;
    }
    procBoundary0to3
    {
        type            processor;
        value           nonuniform List<scalar> 10(5.55043e+06 5.56165e+06 5.57783e+06 5.57589e+06 5.58852e+06 5.85279e+06 6.95924e+06 1.43938e+07 4.55799e+07 7.20638e+07);
    }
}

dimensions      [0 6 0 0 0 0 0];

internalField   nonuniform List<scalar> 
250
(
3.65189e+06
3.66063e+06
3.6686e+06
3.66893e+06
3.6774e+06
3.84849e+06
4.56191e+06
9.13266e+06
2.82531e+07
4.86592e+07
3.41309e+06
3.42159e+06
3.4268e+06
3.42883e+06
3.43714e+06
3.59291e+06
4.24016e+06
8.30157e+06
2.46011e+07
4.57196e+07
2.32503e+07
1.69548e+07
6.03204e+06
3.97284e+06
3.36891e+06
3.25823e+06
3.23953e+06
3.2286e+06
3.22827e+06
3.21785e+06
3.21318e+06
3.2207e+06
3.22423e+06
3.22748e+06
3.23591e+06
3.3771e+06
3.96426e+06
7.55191e+06
2.13476e+07
4.21203e+07
2.14676e+07
1.46003e+07
5.57099e+06
3.74514e+06
3.19141e+06
3.09088e+06
3.07335e+06
3.06245e+06
3.06187e+06
3.05281e+06
3.04922e+06
3.05536e+06
3.05816e+06
3.06201e+06
3.07073e+06
3.19827e+06
3.73125e+06
6.88457e+06
1.84803e+07
3.82199e+07
1.97851e+07
1.25945e+07
5.18556e+06
3.55593e+06
3.04904e+06
2.9568e+06
2.94028e+06
2.92978e+06
2.92886e+06
2.92114e+06
2.91844e+06
2.92314e+06
2.92567e+06
2.92975e+06
2.93878e+06
3.05372e+06
3.53772e+06
6.29801e+06
1.59811e+07
5.134e+07
1.8229e+07
1.11709e+07
4.86659e+06
3.40194e+06
2.939e+06
2.85327e+06
2.83755e+06
2.82779e+06
2.8264e+06
2.82002e+06
2.81801e+06
2.82137e+06
2.82404e+06
2.82793e+06
2.83728e+06
2.94067e+06
3.38023e+06
5.78932e+06
1.39592e+07
3.48024e+07
1.68014e+07
1.00225e+07
4.60513e+06
3.27982e+06
2.85856e+06
2.77764e+06
2.7625e+06
2.75375e+06
2.75189e+06
2.74686e+06
2.74537e+06
2.74752e+06
2.75047e+06
2.75391e+06
2.76369e+06
2.85651e+06
3.25578e+06
5.35375e+06
1.22342e+07
6.01367e+08
1.54967e+07
9.08972e+06
4.39343e+06
3.18615e+06
2.80516e+06
2.72737e+06
2.71259e+06
2.70516e+06
2.70272e+06
2.69903e+06
2.69796e+06
2.69889e+06
2.70233e+06
2.70522e+06
2.71535e+06
2.7986e+06
3.16122e+06
4.98618e+06
1.07758e+07
2.91885e+18
1.4306e+07
8.32488e+06
4.21342e+06
3.11932e+06
2.77324e+06
2.69882e+06
2.6854e+06
2.67813e+06
2.67525e+06
2.67275e+06
2.67207e+06
2.67301e+06
2.67584e+06
2.67822e+06
2.68874e+06
2.76312e+06
3.09355e+06
4.68138e+06
9.55038e+06
7.6476e+16
1.32172e+07
7.69175e+06
4.069e+06
3.0765e+06
2.76275e+06
2.69166e+06
2.67854e+06
2.67261e+06
2.6691e+06
2.66786e+06
2.66739e+06
2.66755e+06
2.67076e+06
2.67249e+06
2.68336e+06
2.74994e+06
3.05003e+06
4.40852e+06
8.47786e+06
1.75549e+07
1.22199e+07
7.16207e+06
3.96253e+06
3.05493e+06
2.77033e+06
2.70279e+06
2.69005e+06
2.68534e+06
2.6813e+06
2.68119e+06
2.68086e+06
2.68033e+06
2.68392e+06
2.68505e+06
2.69619e+06
2.75583e+06
3.02817e+06
4.20355e+06
7.62649e+06
8.47649e+13
1.95831e+07
6.71471e+06
4.84995e+06
5.77395e+07
2.7942e+06
1.44599e+07
1.19776e+09
3.52391e+06
1.89513e+08
4.71273e+09
1.234e+09
8.35377e+07
3.06623e+06
2.71664e+06
2.72902e+06
2.77893e+06
3.02579e+06
4.04101e+06
1.0905e+07
1.16679e+18
1.09404e+18
1.17325e+13
8.76895e+13
8.13262e+12
5.66169e+14
3.31255e+15
1.19133e+16
2.6353e+16
2.33354e+16
5.2428e+17
2.60075e+17
7.775e+15
3.2374e+15
5.77408e+14
8.72581e+14
1.10271e+14
4.44103e+14
3.25184e+13
1.64283e+19
1.88485e+20
1.04192e+22
8.25008e+20
4.84116e+20
2.73605e+20
3.54972e+20
1.59112e+20
3.46132e+20
7.25156e+19
7.19264e+21
7.48294e+21
)
;

boundaryField
{
    fuel
    {
        type            zeroGradient;
    }
    wall
    {
        type            zeroGradient;
    }
    outlet
    {
        type            zeroGradient;
    }
    frontAndBack
    {
        type            empty;
    }
    procBoundary0to1
    {
        type            processor;
        value           nonuniform List<scalar> 
21
(
1.65508e+21
1.04128e+20
2.11924e+20
9.73868e+19
3.96374e+20
1.14099e+21
3.15992e+21
1.67051e+21
3.34171e+21
1.53369e+22
1.53369e+22
2.36936e+23
4.00524e+22
3.68659e+22
2.68647e+22
3.33068e+22
1.94624e+22
3.52444e+22
1.1016e+22
1.76747e+23
1.1428e+23
)
;
    }
    procBoundary0to2
    {
        type            processor;
        value           nonuniform List<scalar> 
12
(
3.65949e+06
2.51103e+07
1.97248e+07
6.58017e+06
4.24197e+06
3.58442e+06
3.46158e+06
3.44137e+06
3.43107e+06
3.43076e+06
3.41911e+06
3.41911e+06
)
;
    }
    procBoundary0to3
    {
        type            processor;
        value           nonuniform List<scalar> 10(3.93246e+06 3.94041e+06 3.95188e+06 3.9505e+06 3.95945e+06 4.14668e+06 4.9306e+06 1.0198e+07 3.22932e+07 5.06796e+07);
    }
}

dimensions      [0 9 0 0 0 0 0];

internalField   nonuniform List<scalar> 
250
(
2.58735e+06
2.59354e+06
2.59919e+06
2.59942e+06
2.60543e+06
2.72664e+06
3.2321e+06
6.47046e+06
2.00172e+07
3.43437e+07
2.41816e+06
2.42419e+06
2.42787e+06
2.42931e+06
2.4352e+06
2.54556e+06
3.00414e+06
5.88164e+06
1.74298e+07
3.22834e+07
1.64728e+07
1.20124e+07
4.27368e+06
2.81475e+06
2.38686e+06
2.30844e+06
2.29519e+06
2.28745e+06
2.28722e+06
2.27984e+06
2.27653e+06
2.28185e+06
2.28436e+06
2.28666e+06
2.29263e+06
2.39266e+06
2.80866e+06
5.35051e+06
1.51247e+07
2.97967e+07
1.52097e+07
1.03443e+07
3.94703e+06
2.65342e+06
2.26111e+06
2.18988e+06
2.17746e+06
2.16974e+06
2.16932e+06
2.1629e+06
2.16036e+06
2.16472e+06
2.1667e+06
2.16942e+06
2.1756e+06
2.26597e+06
2.64358e+06
4.8777e+06
1.30932e+07
2.70639e+07
1.40176e+07
8.92316e+06
3.67395e+06
2.51936e+06
2.16023e+06
2.09488e+06
2.08318e+06
2.07574e+06
2.07509e+06
2.06962e+06
2.06771e+06
2.07103e+06
2.07283e+06
2.07571e+06
2.08211e+06
2.16355e+06
2.50646e+06
4.46212e+06
1.13225e+07
2.6446e+07
1.29152e+07
7.91451e+06
3.44796e+06
2.41027e+06
2.08227e+06
2.02153e+06
2.01039e+06
2.00348e+06
2.0025e+06
1.99797e+06
1.99655e+06
1.99893e+06
2.00082e+06
2.00358e+06
2.0102e+06
2.08345e+06
2.39488e+06
4.10171e+06
9.89001e+06
2.22081e+07
1.19037e+07
7.10089e+06
3.26272e+06
2.32374e+06
2.02528e+06
1.96795e+06
1.95722e+06
1.95102e+06
1.9497e+06
1.94614e+06
1.94509e+06
1.94661e+06
1.9487e+06
1.95114e+06
1.95806e+06
2.02383e+06
2.30671e+06
3.79312e+06
8.66792e+06
1.93764e+07
1.09793e+07
6.44003e+06
3.11273e+06
2.25737e+06
1.98745e+06
1.93233e+06
1.92186e+06
1.9166e+06
1.91487e+06
1.91226e+06
1.91149e+06
1.91216e+06
1.91459e+06
1.91664e+06
1.92382e+06
1.9828e+06
2.23971e+06
3.53269e+06
7.6346e+06
1.23173e+18
1.01358e+07
5.89815e+06
2.98519e+06
2.21003e+06
1.96483e+06
1.91211e+06
1.90259e+06
1.89745e+06
1.8954e+06
1.89364e+06
1.89315e+06
1.89381e+06
1.89582e+06
1.89751e+06
1.90497e+06
1.95766e+06
2.19177e+06
3.31674e+06
6.76641e+06
1.49253e+16
9.36436e+06
5.44958e+06
2.88287e+06
2.17969e+06
1.9574e+06
1.90703e+06
1.89774e+06
1.89353e+06
1.89105e+06
1.89017e+06
1.88984e+06
1.88995e+06
1.89222e+06
1.89345e+06
1.90115e+06
1.94832e+06
2.16094e+06
3.12342e+06
6.00654e+06
1.24376e+07
8.65691e+06
5.0743e+06
2.80744e+06
2.16441e+06
1.96277e+06
1.91492e+06
1.90589e+06
1.90256e+06
1.89969e+06
1.89961e+06
1.89938e+06
1.899e+06
1.90155e+06
1.90235e+06
1.91024e+06
1.9525e+06
2.14545e+06
2.9782e+06
5.40262e+06
6.31358e+15
1.49628e+07
4.75686e+06
2.80739e+06
5.40376e+06
1.97968e+06
3.87517e+06
1.99651e+08
2.389e+06
1.07369e+08
1.08802e+09
2.74856e+08
1.7592e+07
1.99127e+06
1.92309e+06
1.93123e+06
1.96884e+06
2.14376e+06
2.86304e+06
9.01454e+06
2.62481e+21
4.64411e+21
2.09561e+15
1.88053e+16
8.73282e+14
6.09946e+16
3.54301e+17
1.40999e+18
6.69339e+18
3.89348e+18
1.28874e+20
6.61895e+19
1.64294e+18
1.33029e+18
2.07351e+17
3.51328e+17
3.5677e+16
1.40208e+17
8.73924e+15
1.33621e+23
2.4043e+24
1.12646e+26
1.20383e+25
1.12748e+25
6.34681e+24
8.61988e+24
3.39657e+24
7.95494e+24
1.44596e+24
3.67356e+26
3.46856e+26
)
;

boundaryField
{
    fuel
    {
        type            zeroGradient;
    }
    wall
    {
        type            zeroGradient;
    }
    outlet
    {
        type            zeroGradient;
    }
    frontAndBack
    {
        type            empty;
    }
    procBoundary0to1
    {
        type            processor;
        value           nonuniform List<scalar> 
21
(
5.98326e+25
1.81326e+24
4.37749e+24
1.51046e+24
6.06015e+24
1.19307e+25
2.77354e+25
2.28398e+25
3.46767e+25
1.48658e+26
1.48658e+26
9.65504e+27
2.94999e+27
3.40971e+27
2.43253e+27
3.0927e+27
1.67833e+27
3.20705e+27
8.91016e+26
2.2678e+28
1.29041e+28
)
;
    }
    procBoundary0to2
    {
        type            processor;
        value           nonuniform List<scalar> 
12
(
2.59274e+06
1.77904e+07
1.3975e+07
4.66202e+06
3.00542e+06
2.53955e+06
2.45252e+06
2.4382e+06
2.4309e+06
2.43068e+06
2.42243e+06
2.42243e+06
)
;
    }
    procBoundary0to3
    {
        type            processor;
        value           nonuniform List<scalar> 10(2.78613e+06 2.79177e+06 2.79989e+06 2.79892e+06 2.80525e+06 2.93791e+06 3.49331e+06 7.22522e+06 2.28796e+07 3.58668e+07);
    }
}

)

--------------------------------------------------------------------------
MPI_ABORT was invoked on rank 0 in communicator MPI_COMM_WORLD 
with errorcode 1.

NOTE: invoking MPI_ABORT causes Open MPI to kill all MPI processes.
You may or may not see output from other processes, depending on
exactly when Open MPI kills them.
--------------------------------------------------------------------------
